#======================================================================

# CRYSTAL DATA

#----------------------------------------------------------------------

data_VESTA_phase_1


_pd_phase_name                         correctexpandedhybrid
_cell_length_a                         34.28626
_cell_length_b                         34.32384
_cell_length_c                         34.10322
_cell_angle_alpha                      90.0
_cell_angle_beta                       90.0
_cell_angle_gamma                      90.0
_symmetry_space_group_name_H-M         "P 1"
_symmetry_Int_Tables_number            1

loop_
   "x, y, z"

loop_
   _atom_site_label
   _atom_site_occupancy
   _atom_site_fract_x
   _atom_site_fract_y
   _atom_site_fract_z
   _atom_site_B_iso_or_equiv
   _atom_site_adp_type
   _atom_site_type_symbol
Zn 1.0 0.126086687852 0.249833161426 0.00254248729049 Biso 1.0 Zn
C 1.0 0.00439140878845 0.187930021358 0.314274026657 Biso 1.0 C
C 1.0 0.0417766214856 0.201286275192 0.299626972251 Biso 1.0 C
H 1.0 0.0525185605237 0.185395481959 0.273214002263 Biso 1.0 H
O 1.0 0.060788843062 0.227875113587 0.31465697044 Biso 1.0 O
C 1.0 0.0636090118101 0.254828138685 0.4395459729 Biso 1.0 C
C 1.0 0.068517674201 0.201537420232 0.405618479211 Biso 1.0 C
C 1.0 0.0487231019603 0.318135748829 0.348374983197 Biso 1.0 C
C 1.0 0.0485292066667 0.34681335043 0.319551458436 Biso 1.0 C
C 1.0 0.0979131283484 0.202225630991 0.433724466764 Biso 1.0 C
C 1.0 0.0486960657238 0.292009107328 0.453160975073 Biso 1.0 C
Zn 1.0 0.001998555608 0.24990342869 0.376341959975 Biso 1.0 Zn
H 1.0 0.0619358595696 0.179960229858 0.383358494564 Biso 1.0 H
H 1.0 0.0706973595121 0.311211325286 0.370170480022 Biso 1.0 H
H 1.0 0.0699108887423 0.369156645701 0.313017476638 Biso 1.0 H
H 1.0 0.120153207457 0.180719819266 0.440343963538 Biso 1.0 H
H 1.0 0.021749091179 0.301967137335 0.43771998486 Biso 1.0 H
O 1.0 0.0637716673165 0.311635818472 0.479329452766 Biso 1.0 O
N 1.0 0.0469908357675 0.234544932908 0.409546491371 Biso 1.0 N
N 1.0 0.0152211995147 0.297266954729 0.345199995003 Biso 1.0 N
N 1.0 0.0150125744094 0.343490506234 0.298574478081 Biso 1.0 N
N 1.0 0.0947787050731 0.235727473456 0.454630473603 Biso 1.0 N
N 1.0 0.0148981832442 0.157334615222 0.20539550836 Biso 1.0 N
N 1.0 0.0457557637395 0.094422914852 0.265058004381 Biso 1.0 N
Zn 1.0 0.0022329352842 0.251342309999 0.128029986006 Biso 1.0 Zn
C 1.0 0.00489671321579 0.314129097734 0.189595483881 Biso 1.0 C
C 1.0 0.0422504510016 0.300624307404 0.204284498791 Biso 1.0 C
H 1.0 0.0532735272633 0.316768524015 0.230406499737 Biso 1.0 H
O 1.0 0.0608291748964 0.273566075902 0.189591974355 Biso 1.0 O
N 1.0 0.0455952326081 0.407386038607 0.236327964435 Biso 1.0 N
C 1.0 0.311119352947 0.00435298011122 0.185271971946 Biso 1.0 C
C 1.0 0.296995450524 0.0419293714306 0.198534483511 Biso 1.0 C
H 1.0 0.270883647439 0.0529092601457 0.18244400733 Biso 1.0 H
O 1.0 0.312130458127 0.0608592169108 0.225235975661 Biso 1.0 O
C 1.0 0.313029579882 0.186417983186 0.00577051096261 Biso 1.0 C
C 1.0 0.298382809995 0.199581606358 0.0433515069725 Biso 1.0 C
H 1.0 0.271378032283 0.184427674725 0.0533899983555 Biso 1.0 H
O 1.0 0.314035344571 0.225155723215 0.0633354873078 Biso 1.0 O
C 1.0 0.244155267959 0.0614801541965 0.0610549947178 Biso 1.0 C
C 1.0 0.297215717969 0.0659824479035 0.0953879994187 Biso 1.0 C
C 1.0 0.297184036618 0.095129650996 0.0669789831988 Biso 1.0 C
C 1.0 0.207031274731 0.0468444957363 0.0468120006738 Biso 1.0 C
H 1.0 0.318916025013 0.05901810483 0.117458497643 Biso 1.0 H
H 1.0 0.31909356853 0.116960945469 0.0603599897827 Biso 1.0 H
H 1.0 0.196368803314 0.0202294668787 0.0622810076685 Biso 1.0 H
O 1.0 0.188273786934 0.0618541210796 0.0199674988476 Biso 1.0 O
N 1.0 0.263842070757 0.0448624288842 0.0914704808803 Biso 1.0 N
N 1.0 0.263831000364 0.0921997088913 0.0457469994486 Biso 1.0 N
Zn 1.0 0.374192027852 0.00135864751131 0.246413977733 Biso 1.0 Zn
N 1.0 0.204510284749 0.156057940433 0.0135335018288 Biso 1.0 N
Zn 1.0 0.37647422556 0.248204150069 0.00268449724137 Biso 1.0 Zn
N 1.0 0.202009224255 0.0147007438961 0.155126991914 Biso 1.0 N
C 1.0 0.186028861404 0.00482469323268 0.311059496875 Biso 1.0 C
C 1.0 0.200366536457 0.0423232668213 0.297701990419 Biso 1.0 C
H 1.0 0.226810687765 0.052977815184 0.313463983385 Biso 1.0 H
O 1.0 0.185105818699 0.0614119777234 0.271209489825 Biso 1.0 O
C 1.0 0.436940768589 0.0626464824283 0.253577996294 Biso 1.0 C
C 1.0 0.432050909178 0.0974594386993 0.200787990505 Biso 1.0 C
C 1.0 0.317075252278 0.0488296779371 0.344162489723 Biso 1.0 C
C 1.0 0.451426072064 0.183009326239 0.348638994608 Biso 1.0 C
C 1.0 0.451336618837 0.154042528583 0.320105991459 Biso 1.0 C
C 1.0 0.346232915494 0.0487034073293 0.315745986049 Biso 1.0 C
C 1.0 0.403226831955 0.0689657989642 0.20015395484 Biso 1.0 C
C 1.0 0.449976796273 0.0480116158293 0.291210989824 Biso 1.0 C
Zn 1.0 0.497665073762 0.125476579415 0.252018480527 Biso 1.0 Zn
H 1.0 0.438509510055 0.120259061367 0.179762995364 Biso 1.0 H
H 1.0 0.309980576651 0.0706443085938 0.366077478208 Biso 1.0 H
H 1.0 0.429884505557 0.189781531827 0.370936479446 Biso 1.0 H
H 1.0 0.429823646209 0.131770389684 0.313834483033 Biso 1.0 H
H 1.0 0.367947436032 0.0706586454497 0.308899978055 Biso 1.0 H
H 1.0 0.380969222406 0.0630287013389 0.178396000152 Biso 1.0 H
H 1.0 0.434122268745 0.0216087988341 0.301681988302 Biso 1.0 H
O 1.0 0.476222056007 0.0630676206236 0.310785977586 Biso 1.0 O
N 1.0 0.453017121206 0.0933315425367 0.234323479962 Biso 1.0 N
N 1.0 0.296165059777 0.015339280992 0.340664988703 Biso 1.0 N
N 1.0 0.484813459915 0.204093367669 0.344866967581 Biso 1.0 N
N 1.0 0.484531915896 0.157398033581 0.298756973416 Biso 1.0 N
N 1.0 0.343312334385 0.0151640382824 0.294840985926 Biso 1.0 N
N 1.0 0.406516741406 0.0473497726598 0.233266972907 Biso 1.0 N
C 1.0 0.0607617164265 0.0633704172425 0.245511987684 Biso 1.0 C
C 1.0 0.18073027362 0.0479467630895 0.151333474286 Biso 1.0 C
C 1.0 0.0675501760789 0.0981503792957 0.298085996847 Biso 1.0 C
C 1.0 0.0958420399782 0.0690878706237 0.298041980963 Biso 1.0 C
C 1.0 0.151723048147 0.0478920760419 0.179848006982 Biso 1.0 C
C 1.0 0.0458138033352 0.0492849008958 0.208358470866 Biso 1.0 C
Zn 1.0 0.123285099562 0.00197911994748 0.248267482691 Biso 1.0 Zn
H 1.0 0.187401715323 0.0694825509294 0.129019993841 Biso 1.0 H
H 1.0 0.0615886094296 0.120503940978 0.319755989678 Biso 1.0 H
H 1.0 0.11868640818 0.0629352686604 0.319131965249 Biso 1.0 H
H 1.0 0.12929077394 0.0692501743903 0.186074478826 Biso 1.0 H
H 1.0 0.0194905188861 0.0649455889821 0.197409477786 Biso 1.0 H
O 1.0 0.0606056461351 0.0222311079846 0.189740003632 Biso 1.0 O
N 1.0 0.0913652898106 0.0473774218143 0.26506147196 Biso 1.0 N
N 1.0 0.155230985931 0.0147595673767 0.201241502321 Biso 1.0 N
C 1.0 0.255172951577 0.0606939679761 0.435013455426 Biso 1.0 C
C 1.0 0.319451576143 0.152602966551 0.452598472211 Biso 1.0 C
C 1.0 0.202067037854 0.0663297276741 0.400919965367 Biso 1.0 C
C 1.0 0.203003974181 0.0957269366372 0.429000002005 Biso 1.0 C
C 1.0 0.348199718257 0.181199131477 0.453250488952 Biso 1.0 C
C 1.0 0.29214511631 0.0456996067998 0.449178963757 Biso 1.0 C
Zn 1.0 0.250329849278 0.123548883561 0.497160975279 Biso 1.0 Zn
H 1.0 0.313425666311 0.130330410883 0.430900487068 Biso 1.0 H
H 1.0 0.180094727356 0.0597836054124 0.378986967843 Biso 1.0 H
H 1.0 0.182098635407 0.118594999732 0.435216476594 Biso 1.0 H
H 1.0 0.371138407321 0.187450764716 0.432284973979 Biso 1.0 H
H 1.0 0.302408761515 0.0187727252788 0.434026453759 Biso 1.0 H
O 1.0 0.311234479473 0.0608579040883 0.475737488177 Biso 1.0 O
N 1.0 0.297589941762 0.156132903296 0.48554743743 Biso 1.0 N
N 1.0 0.234910377075 0.0443822136738 0.404812966163 Biso 1.0 N
N 1.0 0.236306025433 0.0920118224501 0.450077458263 Biso 1.0 N
N 1.0 0.344154379642 0.202344215682 0.486667968859 Biso 1.0 N
C 1.0 0.495273646321 0.313157136702 0.314722015514 Biso 1.0 C
C 1.0 0.45768351444 0.299082706413 0.301350974313 Biso 1.0 C
H 1.0 0.446782681882 0.272737733491 0.31706249163 Biso 1.0 H
O 1.0 0.438691726501 0.314527417823 0.274861493869 Biso 1.0 O
Zn 1.0 0.49846726004 0.376220909158 0.253361468346 Biso 1.0 Zn
N 1.0 0.455289222048 0.264841821254 0.409046488827 Biso 1.0 N
C 1.0 0.189311455494 0.311285760241 0.00503799928249 Biso 1.0 C
C 1.0 0.204143793542 0.297895359127 0.0424579866255 Biso 1.0 C
H 1.0 0.230949109472 0.313283973421 0.0526474924795 Biso 1.0 H
O 1.0 0.18884695793 0.271897443699 0.0621804898192 Biso 1.0 O
C 1.0 0.0629945910826 0.245636935975 0.0642074855933 Biso 1.0 C
C 1.0 0.183261513452 0.152128516646 0.0469085021436 Biso 1.0 C
C 1.0 0.0690494077143 0.298742150516 0.0982465011023 Biso 1.0 C
C 1.0 0.0491447886729 0.182842952028 0.155904988043 Biso 1.0 C
C 1.0 0.0487006760697 0.154145345512 0.184759497302 Biso 1.0 C
C 1.0 0.0984398134287 0.297519488999 0.0701919959147 Biso 1.0 C
C 1.0 0.154724195571 0.180942665686 0.0474634930833 Biso 1.0 C
C 1.0 0.0478610959232 0.208584957357 0.0505849889744 Biso 1.0 C
H 1.0 0.189399392801 0.129234905608 0.0679305050993 Biso 1.0 H
H 1.0 0.062997768953 0.320332399654 0.120640490906 Biso 1.0 H
H 1.0 0.0713601019494 0.18985842572 0.134381011056 Biso 1.0 H
H 1.0 0.0704132495542 0.132256147923 0.191882492164 Biso 1.0 H
H 1.0 0.121533585349 0.318171868814 0.0639495004997 Biso 1.0 H
H 1.0 0.132399329211 0.187113695788 0.0690879914149 Biso 1.0 H
H 1.0 0.0208255721407 0.198725868326 0.065899000074 Biso 1.0 H
O 1.0 0.0629889654871 0.188884255812 0.0244685109874 Biso 1.0 O
N 1.0 0.0468518578293 0.266169147376 0.0942935027972 Biso 1.0 N
N 1.0 0.0156026065462 0.203670680482 0.158810987172 Biso 1.0 N
N 1.0 0.0945087947024 0.264212611103 0.0492184901298 Biso 1.0 N
N 1.0 0.158414335894 0.202681687488 0.0144835005463 Biso 1.0 N
C 1.0 0.439451494815 0.254938582487 0.0647979877595 Biso 1.0 C
C 1.0 0.434385148859 0.202354065325 0.0997129794825 Biso 1.0 C
C 1.0 0.318652032296 0.345639589816 0.0472290015376 Biso 1.0 C
C 1.0 0.347219126196 0.31686124124 0.047851494918 Biso 1.0 C
C 1.0 0.40519188237 0.202350786741 0.0713690083364 Biso 1.0 C
C 1.0 0.454136732928 0.291850346099 0.0502200087892 Biso 1.0 C
H 1.0 0.441092694507 0.180879761341 0.122060995898 Biso 1.0 H
H 1.0 0.312391446818 0.368547468249 0.0682030036897 Biso 1.0 H
H 1.0 0.369487110762 0.310742293378 0.0695549890376 Biso 1.0 H
H 1.0 0.382625191894 0.181064737345 0.0653664959659 Biso 1.0 H
H 1.0 0.480818271849 0.302613768434 0.0655314926109 Biso 1.0 H
O 1.0 0.439047731431 0.310384455458 0.0232500047164 Biso 1.0 O
N 1.0 0.455824022171 0.235473938941 0.0954794917747 Biso 1.0 N
N 1.0 0.297528414853 0.341679505718 0.0137845045743 Biso 1.0 N
N 1.0 0.343688338342 0.295111786319 0.0148490076846 Biso 1.0 N
N 1.0 0.408552358623 0.23532126254 0.0497614878596 Biso 1.0 N
C 1.0 0.254884425978 0.436397027677 0.060732006497 Biso 1.0 C
C 1.0 0.316309392467 0.450946824763 0.151650492118 Biso 1.0 C
C 1.0 0.20071667241 0.431448367354 0.0932960005173 Biso 1.0 C
C 1.0 0.202375729369 0.401752765632 0.0655850093822 Biso 1.0 C
C 1.0 0.344864831857 0.451069743853 0.18063499365 Biso 1.0 C
C 1.0 0.292284998237 0.451356203125 0.0477200100486 Biso 1.0 C
Zn 1.0 0.248211649153 0.498040145524 0.123609507693 Biso 1.0 Zn
H 1.0 0.309436041257 0.428999265613 0.129836482895 Biso 1.0 H
H 1.0 0.178504457035 0.438099445959 0.114917503168 Biso 1.0 H
H 1.0 0.181149529992 0.379360013765 0.0586290106157 Biso 1.0 H
H 1.0 0.367134012471 0.429664484612 0.187353973592 Biso 1.0 H
H 1.0 0.301854908077 0.47847811694 0.063030501136 Biso 1.0 H
O 1.0 0.312469774022 0.436078143772 0.0220834859164 Biso 1.0 O
N 1.0 0.295487012104 0.484462087193 0.154715971925 Biso 1.0 N
N 1.0 0.233669908925 0.453191542954 0.0899729970291 Biso 1.0 N
N 1.0 0.236429718997 0.404910152508 0.0455510078192 Biso 1.0 N
N 1.0 0.341476929957 0.484555610171 0.20156949616 Biso 1.0 N
C 1.0 0.246141930674 0.437435227205 0.43610848337 Biso 1.0 C
C 1.0 0.181723146029 0.451160210525 0.344323480476 Biso 1.0 C
C 1.0 0.18281979642 0.345805352766 0.452199952286 Biso 1.0 C
C 1.0 0.299040163265 0.432097860266 0.401518989669 Biso 1.0 C
C 1.0 0.298713336331 0.403008129628 0.429885465124 Biso 1.0 C
C 1.0 0.154125406907 0.317142477005 0.45272593371 Biso 1.0 C
C 1.0 0.152803899585 0.451468369573 0.315682479015 Biso 1.0 C
C 1.0 0.208995880105 0.452194770271 0.449998486944 Biso 1.0 C
Zn 1.0 0.250251716779 0.498006303876 0.37200295579 Biso 1.0 Zn
Zn 1.0 0.25184182021 0.374247479845 0.497578986355 Biso 1.0 Zn
H 1.0 0.188987869015 0.42902121545 0.365823981392 Biso 1.0 H
H 1.0 0.188692208854 0.368302852592 0.43069296364 Biso 1.0 H
H 1.0 0.320304024231 0.438368095299 0.378850977218 Biso 1.0 H
H 1.0 0.319900010511 0.380401241815 0.436095983307 Biso 1.0 H
H 1.0 0.131079476886 0.311056620608 0.431828455996 Biso 1.0 H
H 1.0 0.130932905437 0.429660622552 0.308795978644 Biso 1.0 H
H 1.0 0.198615828881 0.478856320975 0.434398966841 Biso 1.0 H
O 1.0 0.189771321851 0.43724209642 0.476569986821 Biso 1.0 O
N 1.0 0.202457922866 0.484712426479 0.341222961341 Biso 1.0 N
N 1.0 0.204810937712 0.341996750331 0.48501247945 Biso 1.0 N
N 1.0 0.266027472063 0.453641403484 0.405617472495 Biso 1.0 N
N 1.0 0.265534589232 0.40648609527 0.451204952815 Biso 1.0 N
N 1.0 0.158403404576 0.295715017865 0.485920481834 Biso 1.0 N
N 1.0 0.155720308435 0.485198545917 0.294933464025 Biso 1.0 N
C 1.0 0.312862800794 0.495457510975 0.310485500665 Biso 1.0 C
C 1.0 0.299331498184 0.45806135057 0.296057994357 Biso 1.0 C
H 1.0 0.315496914618 0.446800667169 0.270055485071 Biso 1.0 H
O 1.0 0.272203833545 0.439647131778 0.310884971378 Biso 1.0 O
C 1.0 0.188938080061 0.187167167259 0.494341497843 Biso 1.0 C
C 1.0 0.202276095831 0.201781035643 0.456818488094 Biso 1.0 C
H 1.0 0.18703081543 0.228650929204 0.446616982039 Biso 1.0 H
O 1.0 0.228117119325 0.186250983821 0.437038437767 Biso 1.0 O
C 1.0 0.313421855648 0.31087071382 0.494619463464 Biso 1.0 C
C 1.0 0.300286667282 0.296316582335 0.456994467737 Biso 1.0 C
H 1.0 0.315626477158 0.269467985674 0.446862956445 Biso 1.0 H
O 1.0 0.274573871206 0.311845481097 0.437072973737 Biso 1.0 O
C 1.0 0.186060542755 0.495071082697 0.18572348431 Biso 1.0 C
C 1.0 0.199613235144 0.457798841627 0.200417001481 Biso 1.0 C
H 1.0 0.183850441678 0.447120134551 0.226945492191 Biso 1.0 H
O 1.0 0.226233274972 0.438848491109 0.185362995899 Biso 1.0 O
C 1.0 0.436288394215 0.438553724241 0.24491648689 Biso 1.0 C
C 1.0 0.430528618859 0.405745552209 0.298939972111 Biso 1.0 C
C 1.0 0.451623948387 0.318358386864 0.155645478892 Biso 1.0 C
C 1.0 0.451613378665 0.347574092899 0.183948992618 Biso 1.0 C
C 1.0 0.401890930341 0.434441825064 0.298018490911 Biso 1.0 C
C 1.0 0.450900256204 0.451151541729 0.207079982816 Biso 1.0 C
H 1.0 0.43678806392 0.383975731173 0.321080465098 Biso 1.0 H
H 1.0 0.429869958281 0.311166730996 0.133676001875 Biso 1.0 H
H 1.0 0.429576787568 0.369281315221 0.190560477606 Biso 1.0 H
H 1.0 0.379637298345 0.441514340549 0.319492957019 Biso 1.0 H
H 1.0 0.477574312875 0.435466965829 0.196955979952 Biso 1.0 H
O 1.0 0.435582448038 0.476874889696 0.18708551585 Biso 1.0 O
N 1.0 0.451965600747 0.408596030345 0.265642990579 Biso 1.0 N
N 1.0 0.485137560973 0.297489314919 0.15936497489 Biso 1.0 N
N 1.0 0.48509823048 0.344766041853 0.205049491499 Biso 1.0 N
N 1.0 0.405577955377 0.454845643809 0.264023491286 Biso 1.0 N
C 1.0 0.438633231434 0.244286937615 0.438850471597 Biso 1.0 C
C 1.0 0.433653279049 0.297906917523 0.40557499465 Biso 1.0 C
C 1.0 0.404167147812 0.296829597271 0.433638476393 Biso 1.0 C
C 1.0 0.453672277086 0.207210980884 0.452690474916 Biso 1.0 C
H 1.0 0.440538117878 0.320148382219 0.384046976815 Biso 1.0 H
H 1.0 0.381948034303 0.318263363517 0.44051846107 Biso 1.0 H
H 1.0 0.480643927065 0.197130073464 0.437432511361 Biso 1.0 H
O 1.0 0.438568422348 0.187915740071 0.479099977325 Biso 1.0 O
N 1.0 0.40738671298 0.263123343471 0.454183966857 Biso 1.0 N
C 1.0 0.0620910815018 0.437680037355 0.255949009479 Biso 1.0 C
C 1.0 0.0662467137766 0.403977840107 0.202445982723 Biso 1.0 C
C 1.0 0.0951640966116 0.432449252159 0.202085494312 Biso 1.0 C
C 1.0 0.0489327197156 0.452141229338 0.293677976652 Biso 1.0 C
H 1.0 0.0591373935207 0.382120775413 0.180584504019 Biso 1.0 H
H 1.0 0.116643635539 0.439197076756 0.179737491879 Biso 1.0 H
H 1.0 0.0648808901138 0.478377981226 0.304425486604 Biso 1.0 H
O 1.0 0.0224040175849 0.437153157901 0.312856457921 Biso 1.0 O
N 1.0 0.09238526104 0.4534453831 0.23571797811 Biso 1.0 N
C 1.0 0.495355088811 0.187665914801 0.18902649329 Biso 1.0 C
C 1.0 0.45773575112 0.202101781117 0.202058480751 Biso 1.0 C
H 1.0 0.447131927753 0.228314638245 0.185906496987 Biso 1.0 H
O 1.0 0.438463197983 0.187161582554 0.228596982698 Biso 1.0 O
Zn 1.0 0.126086687852 0.249833161426 0.502542490362 Biso 1.0 Zn
C 1.0 0.00439140878845 0.187930021358 0.814273998487 Biso 1.0 C
C 1.0 0.0417766214856 0.201286275192 0.799626944081 Biso 1.0 C
H 1.0 0.0525185605237 0.185395481959 0.773214002057 Biso 1.0 H
O 1.0 0.060788843062 0.227875113587 0.814656998199 Biso 1.0 O
C 1.0 0.0636090118101 0.254828138684 0.93954594473 Biso 1.0 C
C 1.0 0.068517674201 0.201537420232 0.905618479005 Biso 1.0 C
C 1.0 0.0487231019603 0.318135748829 0.848374955027 Biso 1.0 C
C 1.0 0.0485292066667 0.34681335043 0.819551486194 Biso 1.0 C
C 1.0 0.0979131283484 0.202225630991 0.933724438593 Biso 1.0 C
C 1.0 0.0486960657238 0.292009107328 0.953161002832 Biso 1.0 C
Zn 1.0 0.001998555608 0.24990342869 0.876341931805 Biso 1.0 Zn
H 1.0 0.0619358595696 0.179960229858 0.883358466394 Biso 1.0 H
H 1.0 0.0706973595121 0.311211325286 0.870170479816 Biso 1.0 H
H 1.0 0.0699108887423 0.369156645701 0.813017504396 Biso 1.0 H
H 1.0 0.120153207457 0.180719819266 0.940343935368 Biso 1.0 H
H 1.0 0.021749091179 0.301967137335 0.937719984654 Biso 1.0 H
O 1.0 0.0637716673165 0.311635818472 0.979329480524 Biso 1.0 O
N 1.0 0.0469908357675 0.234544932908 0.90954651913 Biso 1.0 N
N 1.0 0.0152211995147 0.297266954729 0.845199994797 Biso 1.0 N
N 1.0 0.0150125744094 0.343490506234 0.798574533803 Biso 1.0 N
N 1.0 0.0947787050731 0.235727473456 0.954630473397 Biso 1.0 N
N 1.0 0.0148981832442 0.157334615222 0.705395536119 Biso 1.0 N
N 1.0 0.0457557637395 0.094422914852 0.765057976211 Biso 1.0 N
Zn 1.0 0.0022329352842 0.251342309999 0.6280299858 Biso 1.0 Zn
C 1.0 0.00489671321579 0.314129097734 0.68959551164 Biso 1.0 C
C 1.0 0.0422504510016 0.300624307404 0.704284512568 Biso 1.0 C
H 1.0 0.0532735272633 0.316768524015 0.730406457585 Biso 1.0 H
O 1.0 0.0608291748964 0.273566075902 0.689591988132 Biso 1.0 O
N 1.0 0.0455952326081 0.407386038607 0.73632796423 Biso 1.0 N
C 1.0 0.311119352947 0.00435298011122 0.685271999704 Biso 1.0 C
C 1.0 0.296995450524 0.0419293714306 0.698534483305 Biso 1.0 C
H 1.0 0.270883647439 0.0529092601457 0.682444021106 Biso 1.0 H
O 1.0 0.312130458127 0.0608592169108 0.725236017402 Biso 1.0 O
C 1.0 0.313029579882 0.186417983186 0.505770526924 Biso 1.0 C
C 1.0 0.298382809995 0.199581606358 0.543351534731 Biso 1.0 C
H 1.0 0.271378032283 0.184427674725 0.553390008636 Biso 1.0 H
O 1.0 0.314035344571 0.225155723215 0.56333547312 Biso 1.0 O
C 1.0 0.244155267959 0.0614801541965 0.56105498053 Biso 1.0 C
C 1.0 0.297215717969 0.0659824479035 0.595387985231 Biso 1.0 C
C 1.0 0.297184036618 0.095129650996 0.566979003966 Biso 1.0 C
C 1.0 0.207031274731 0.0468444957363 0.546812010955 Biso 1.0 C
H 1.0 0.318916025013 0.05901810483 0.617458511419 Biso 1.0 H
H 1.0 0.31909356853 0.116960945469 0.56036001055 Biso 1.0 H
H 1.0 0.196368803314 0.0202294668787 0.562280993481 Biso 1.0 H
O 1.0 0.188273786934 0.0618541210796 0.519967523111 Biso 1.0 O
N 1.0 0.263842070757 0.0448624288842 0.591470459701 Biso 1.0 N
N 1.0 0.263831000364 0.0921997088913 0.545746960792 Biso 1.0 N
Zn 1.0 0.374192027852 0.00135864751131 0.746414033455 Biso 1.0 Zn
N 1.0 0.204510284749 0.156057940433 0.513533485893 Biso 1.0 N
Zn 1.0 0.37647422556 0.248204150069 0.502684493322 Biso 1.0 Zn
N 1.0 0.202009224255 0.0147007438961 0.655126991708 Biso 1.0 N
C 1.0 0.186028861404 0.00482469323268 0.811059496669 Biso 1.0 C
C 1.0 0.200366536457 0.0423232668213 0.797701990213 Biso 1.0 C
H 1.0 0.226810687765 0.052977815184 0.813463983179 Biso 1.0 H
O 1.0 0.185105818699 0.0614119777234 0.771209461655 Biso 1.0 O
C 1.0 0.436940768589 0.0626464824283 0.753577996088 Biso 1.0 C
C 1.0 0.432050909178 0.0974594386993 0.700787962335 Biso 1.0 C
C 1.0 0.317075252278 0.0488296779371 0.844162461553 Biso 1.0 C
C 1.0 0.451426072064 0.183009326239 0.848638994402 Biso 1.0 C
C 1.0 0.451336618837 0.154042528583 0.820105963289 Biso 1.0 C
C 1.0 0.346232915494 0.0487034073293 0.815745985843 Biso 1.0 C
C 1.0 0.403226831955 0.0689657989642 0.700153954634 Biso 1.0 C
C 1.0 0.449976796273 0.0480116158293 0.791211017583 Biso 1.0 C
Zn 1.0 0.497665073762 0.125476579415 0.752018424393 Biso 1.0 Zn
H 1.0 0.438509510055 0.120259061367 0.679763023123 Biso 1.0 H
H 1.0 0.309980576651 0.0706443085938 0.866077505966 Biso 1.0 H
H 1.0 0.429884505557 0.189781531827 0.87093647924 Biso 1.0 H
H 1.0 0.429823646209 0.131770389684 0.813834510791 Biso 1.0 H
H 1.0 0.367947436032 0.0706586454497 0.808899977849 Biso 1.0 H
H 1.0 0.380969222406 0.0630287013389 0.678396013929 Biso 1.0 H
H 1.0 0.434122268745 0.0216087988341 0.801681988096 Biso 1.0 H
O 1.0 0.476222056007 0.0630676206236 0.810785949416 Biso 1.0 O
N 1.0 0.453017121206 0.0933315425367 0.734323479756 Biso 1.0 N
N 1.0 0.296165059777 0.015339280992 0.840664960533 Biso 1.0 N
N 1.0 0.484813459915 0.204093367669 0.84486699534 Biso 1.0 N
N 1.0 0.484531915896 0.157398033581 0.798756973211 Biso 1.0 N
N 1.0 0.343312334385 0.0151640382824 0.794841013685 Biso 1.0 N
N 1.0 0.406516741406 0.0473497726598 0.733266930755 Biso 1.0 N
C 1.0 0.0607617164265 0.0633704172425 0.745512015442 Biso 1.0 C
C 1.0 0.18073027362 0.0479467630895 0.651333460098 Biso 1.0 C
C 1.0 0.0675501760789 0.0981503792957 0.798085996642 Biso 1.0 C
C 1.0 0.0958420399782 0.0690878706237 0.798041980758 Biso 1.0 C
C 1.0 0.151723048147 0.0478920760419 0.679848034741 Biso 1.0 C
C 1.0 0.0458138033352 0.0492849008958 0.70835847066 Biso 1.0 C
Zn 1.0 0.123285099562 0.00197911994748 0.748267454521 Biso 1.0 Zn
H 1.0 0.187401715323 0.0694825509294 0.629019979653 Biso 1.0 H
H 1.0 0.0615886094296 0.120503940978 0.819755961508 Biso 1.0 H
H 1.0 0.11868640818 0.0629352686604 0.819131965044 Biso 1.0 H
H 1.0 0.12929077394 0.0692501743903 0.686074520567 Biso 1.0 H
H 1.0 0.0194905188861 0.0649455889821 0.69740947758 Biso 1.0 H
O 1.0 0.0606056461351 0.0222311079846 0.689739975462 Biso 1.0 O
N 1.0 0.0913652898106 0.0473774218143 0.765061499718 Biso 1.0 N
N 1.0 0.155230985931 0.0147595673767 0.701241488133 Biso 1.0 N
C 1.0 0.255172951577 0.0606939679761 0.935013483185 Biso 1.0 C
C 1.0 0.319451576143 0.152602966551 0.952598472005 Biso 1.0 C
C 1.0 0.202067037854 0.0663297276741 0.900919965161 Biso 1.0 C
C 1.0 0.203003974181 0.0957269366372 0.929000029763 Biso 1.0 C
C 1.0 0.348199718257 0.181199131477 0.953250488746 Biso 1.0 C
C 1.0 0.29214511631 0.0456996067998 0.949178879658 Biso 1.0 C
Zn 1.0 0.250329849278 0.123548883561 0.997161003038 Biso 1.0 Zn
H 1.0 0.313425666311 0.130330410883 0.930900486862 Biso 1.0 H
H 1.0 0.180094727356 0.0597836054124 0.878986967637 Biso 1.0 H
H 1.0 0.182098635407 0.118594999732 0.935216504352 Biso 1.0 H
H 1.0 0.371138407321 0.187450764716 0.932284945809 Biso 1.0 H
H 1.0 0.302408761515 0.0187727252788 0.934026453553 Biso 1.0 H
O 1.0 0.311234479473 0.0608579040883 0.975737515936 Biso 1.0 O
N 1.0 0.297589941762 0.156132903296 0.98554740926 Biso 1.0 N
N 1.0 0.234910377075 0.0443822136738 0.904812993922 Biso 1.0 N
N 1.0 0.236306025433 0.0920118224501 0.950077430092 Biso 1.0 N
N 1.0 0.344154379642 0.202344215682 0.986667996618 Biso 1.0 N
C 1.0 0.495273646321 0.313157136702 0.814721987344 Biso 1.0 C
C 1.0 0.45768351444 0.299082706413 0.801350946143 Biso 1.0 C
H 1.0 0.446782681882 0.272737733491 0.817062491425 Biso 1.0 H
O 1.0 0.438691726501 0.314527417823 0.774861493663 Biso 1.0 O
Zn 1.0 0.49846726004 0.376220909158 0.753361440176 Biso 1.0 Zn
N 1.0 0.455289222048 0.264841821254 0.909046460656 Biso 1.0 N
C 1.0 0.189311455494 0.311285760241 0.505038028789 Biso 1.0 C
C 1.0 0.204143793542 0.297895359127 0.54245801788 Biso 1.0 C
H 1.0 0.230949109472 0.313283973421 0.552647499265 Biso 1.0 H
O 1.0 0.18884695793 0.271897443699 0.562180545542 Biso 1.0 O
C 1.0 0.0629945910826 0.245636935975 0.564207513352 Biso 1.0 C
C 1.0 0.183261513452 0.152128516646 0.546908487956 Biso 1.0 C
C 1.0 0.0690494077143 0.298742150516 0.598246500896 Biso 1.0 C
C 1.0 0.0491447886729 0.182842952028 0.655905015801 Biso 1.0 C
C 1.0 0.0487006760697 0.154145345512 0.68475952506 Biso 1.0 C
C 1.0 0.0984398134287 0.297519488999 0.570191995709 Biso 1.0 C
C 1.0 0.154724195571 0.180942665686 0.547463468409 Biso 1.0 C
C 1.0 0.0478610959232 0.208584957357 0.550584960804 Biso 1.0 C
H 1.0 0.189399392801 0.129234905608 0.567930518876 Biso 1.0 H
H 1.0 0.062997768953 0.320332399654 0.620640518664 Biso 1.0 H
H 1.0 0.0713601019494 0.18985842572 0.634380968904 Biso 1.0 H
H 1.0 0.0704132495542 0.132256147923 0.691882491958 Biso 1.0 H
H 1.0 0.121533585349 0.318171868814 0.563949514276 Biso 1.0 H
H 1.0 0.132399329211 0.187113695788 0.569087963245 Biso 1.0 H
H 1.0 0.0208255721407 0.198725868326 0.565899020841 Biso 1.0 H
O 1.0 0.0629889654871 0.188884255812 0.524468496799 Biso 1.0 O
N 1.0 0.0468518578293 0.266169147376 0.594293460645 Biso 1.0 N
N 1.0 0.0156026065462 0.203670680482 0.658810959002 Biso 1.0 N
N 1.0 0.0945087947024 0.264212611103 0.549218454969 Biso 1.0 N
N 1.0 0.158414335894 0.202681687488 0.514483490728 Biso 1.0 N
C 1.0 0.439451494815 0.254938582487 0.564798008527 Biso 1.0 C
C 1.0 0.434385148859 0.202354065325 0.599712951312 Biso 1.0 C
C 1.0 0.318652032296 0.345639589816 0.547229015314 Biso 1.0 C
C 1.0 0.347219126196 0.31686124124 0.547851501703 Biso 1.0 C
C 1.0 0.40519188237 0.202350786741 0.571369015122 Biso 1.0 C
C 1.0 0.454136732928 0.291850346099 0.550220026061 Biso 1.0 C
H 1.0 0.441092694507 0.180879761341 0.622060995692 Biso 1.0 H
H 1.0 0.312391446818 0.368547468249 0.568203059413 Biso 1.0 H
H 1.0 0.369487110762 0.310742293378 0.569554967859 Biso 1.0 H
H 1.0 0.382625191894 0.181064737345 0.565366523724 Biso 1.0 H
H 1.0 0.480818271849 0.302613768434 0.565531513378 Biso 1.0 H
O 1.0 0.439047731431 0.310384455458 0.523249978294 Biso 1.0 O
N 1.0 0.455824022171 0.235473938941 0.595479484578 Biso 1.0 N
N 1.0 0.297528414853 0.341679505718 0.513784549811 Biso 1.0 N
N 1.0 0.343688338342 0.295111786319 0.514848984758 Biso 1.0 N
N 1.0 0.408552358623 0.23532126254 0.54976146668 Biso 1.0 N
C 1.0 0.254884425978 0.436397027677 0.560731992309 Biso 1.0 C
C 1.0 0.316309392467 0.450946824763 0.651650463948 Biso 1.0 C
C 1.0 0.20071667241 0.431448367354 0.593295972347 Biso 1.0 C
C 1.0 0.202375729369 0.401752765632 0.565585037141 Biso 1.0 C
C 1.0 0.344864831857 0.451069743853 0.680634951497 Biso 1.0 C
C 1.0 0.292284998237 0.451356203125 0.547720013338 Biso 1.0 C
Zn 1.0 0.248211649153 0.498040145524 0.623609493505 Biso 1.0 Zn
H 1.0 0.309436041257 0.428999265613 0.629836482689 Biso 1.0 H
H 1.0 0.178504457035 0.438099445959 0.614917502962 Biso 1.0 H
H 1.0 0.181149529992 0.379360013765 0.558629017401 Biso 1.0 H
H 1.0 0.367134012471 0.429664484612 0.687353945422 Biso 1.0 H
H 1.0 0.301854908077 0.47847811694 0.563030493939 Biso 1.0 H
O 1.0 0.312469774022 0.436078143772 0.522083473476 Biso 1.0 O
N 1.0 0.295487012104 0.484462087193 0.654715971719 Biso 1.0 N
N 1.0 0.233669908925 0.453191542954 0.589972968859 Biso 1.0 N
N 1.0 0.236429718997 0.404910152508 0.54555098664 Biso 1.0 N
N 1.0 0.341476929957 0.484555610171 0.701569509936 Biso 1.0 N
C 1.0 0.246141930674 0.437435227205 0.9361084552 Biso 1.0 C
C 1.0 0.181723146029 0.451160210525 0.84432348027 Biso 1.0 C
C 1.0 0.18281979642 0.345805352766 0.952200035973 Biso 1.0 C
C 1.0 0.299040163265 0.432097860266 0.901519017427 Biso 1.0 C
C 1.0 0.298713336331 0.403008129628 0.929885436954 Biso 1.0 C
C 1.0 0.154125406907 0.317142477005 0.952725989432 Biso 1.0 C
C 1.0 0.152803899585 0.451468369573 0.815682450844 Biso 1.0 C
C 1.0 0.208995880105 0.452194770271 0.949998458773 Biso 1.0 C
Zn 1.0 0.250251716779 0.498006303876 0.872002983549 Biso 1.0 Zn
Zn 1.0 0.25184182021 0.374247479845 0.997579014113 Biso 1.0 Zn
H 1.0 0.188987869015 0.42902121545 0.865823981186 Biso 1.0 H
H 1.0 0.188692208854 0.368302852592 0.930692991399 Biso 1.0 H
H 1.0 0.320304024231 0.438368095299 0.878851004976 Biso 1.0 H
H 1.0 0.319900010511 0.380401241815 0.93609603903 Biso 1.0 H
H 1.0 0.131079476886 0.311056620608 0.93182845579 Biso 1.0 H
H 1.0 0.130932905437 0.429660622552 0.808796006403 Biso 1.0 H
H 1.0 0.198615828881 0.478856320975 0.93439893867 Biso 1.0 H
O 1.0 0.189771321851 0.43724209642 0.976569958651 Biso 1.0 O
N 1.0 0.202457922866 0.484712426479 0.841222961135 Biso 1.0 N
N 1.0 0.204810937712 0.341996750331 0.985012507209 Biso 1.0 N
N 1.0 0.266027472063 0.453641403484 0.905617472289 Biso 1.0 N
N 1.0 0.265534589232 0.40648609527 0.951204952609 Biso 1.0 N
N 1.0 0.158403404576 0.295715017865 0.985920453664 Biso 1.0 N
N 1.0 0.155720308435 0.485198545917 0.79493346382 Biso 1.0 N
C 1.0 0.312862800794 0.495457510975 0.810485500459 Biso 1.0 C
C 1.0 0.299331498184 0.45806135057 0.796058022115 Biso 1.0 C
H 1.0 0.315496914618 0.446800667169 0.770055484865 Biso 1.0 H
O 1.0 0.272203833545 0.439647131778 0.810884943208 Biso 1.0 O
C 1.0 0.188938080061 0.187167167259 0.994341525602 Biso 1.0 C
C 1.0 0.202276095831 0.201781035643 0.956818515853 Biso 1.0 C
H 1.0 0.18703081543 0.228650929204 0.946617009798 Biso 1.0 H
O 1.0 0.228117119325 0.186250983821 0.93703849349 Biso 1.0 O
C 1.0 0.313421855648 0.31087071382 0.994619491222 Biso 1.0 C
C 1.0 0.300286667282 0.296316582335 0.956994467531 Biso 1.0 C
H 1.0 0.315626477158 0.269467985674 0.946862984204 Biso 1.0 H
O 1.0 0.274573871206 0.311845481097 0.937073001496 Biso 1.0 O
C 1.0 0.186060542755 0.495071082697 0.68572345614 Biso 1.0 C
C 1.0 0.199613235144 0.457798841627 0.700416987293 Biso 1.0 C
H 1.0 0.183850441678 0.447120134551 0.726945533931 Biso 1.0 H
O 1.0 0.226233274972 0.438848491109 0.685362995693 Biso 1.0 O
C 1.0 0.436288394215 0.438553724241 0.744916486684 Biso 1.0 C
C 1.0 0.430528618859 0.405745552209 0.798939915976 Biso 1.0 C
C 1.0 0.451623948387 0.318358386864 0.655645506651 Biso 1.0 C
C 1.0 0.451613378665 0.347574092899 0.683949006394 Biso 1.0 C
C 1.0 0.401890930341 0.434441825064 0.798018490705 Biso 1.0 C
C 1.0 0.450900256204 0.451151541729 0.707079996593 Biso 1.0 C
H 1.0 0.43678806392 0.383975731173 0.821080464893 Biso 1.0 H
H 1.0 0.429869958281 0.311166730996 0.633675987687 Biso 1.0 H
H 1.0 0.429576787568 0.369281315221 0.690560449436 Biso 1.0 H
H 1.0 0.379637298345 0.441514340549 0.819492928849 Biso 1.0 H
H 1.0 0.477574312875 0.435466965829 0.696955951782 Biso 1.0 H
O 1.0 0.435582448038 0.476874889696 0.68708548768 Biso 1.0 O
N 1.0 0.451965600747 0.408596030345 0.765642990373 Biso 1.0 N
N 1.0 0.485137560973 0.297489314919 0.659364988667 Biso 1.0 N
N 1.0 0.48509823048 0.344766041853 0.705049505275 Biso 1.0 N
N 1.0 0.405577955377 0.454845643809 0.764023463116 Biso 1.0 N
C 1.0 0.438633231434 0.244286937615 0.938850415463 Biso 1.0 C
C 1.0 0.433653279049 0.297906917523 0.90557496648 Biso 1.0 C
C 1.0 0.404167147812 0.296829597271 0.933638476187 Biso 1.0 C
C 1.0 0.453672277086 0.207210980884 0.952690530639 Biso 1.0 C
H 1.0 0.440538117878 0.320148382219 0.884046948645 Biso 1.0 H
H 1.0 0.381948034303 0.318263363517 0.9405184329 Biso 1.0 H
H 1.0 0.480643927065 0.197130073464 0.937432455227 Biso 1.0 H
O 1.0 0.438568422348 0.187915740071 0.979099949155 Biso 1.0 O
N 1.0 0.40738671298 0.263123343471 0.954184050544 Biso 1.0 N
C 1.0 0.0620910815018 0.437680037355 0.755949037237 Biso 1.0 C
C 1.0 0.0662467137766 0.403977840107 0.702445968535 Biso 1.0 C
C 1.0 0.0951640966116 0.432449252159 0.702085508088 Biso 1.0 C
C 1.0 0.0489327197156 0.452141229338 0.793677976446 Biso 1.0 C
H 1.0 0.0591373935207 0.382120775413 0.680584503813 Biso 1.0 H
H 1.0 0.116643635539 0.439197076756 0.679737519637 Biso 1.0 H
H 1.0 0.0648808901138 0.478377981226 0.804425458434 Biso 1.0 H
O 1.0 0.0224040175849 0.437153157901 0.812856429751 Biso 1.0 O
N 1.0 0.09238526104 0.4534453831 0.73571794994 Biso 1.0 N
C 1.0 0.495355088811 0.187665914801 0.689026493084 Biso 1.0 C
C 1.0 0.45773575112 0.202101781117 0.702058494528 Biso 1.0 C
H 1.0 0.447131927753 0.228314638245 0.685906454834 Biso 1.0 H
O 1.0 0.438463197983 0.187161582554 0.728596996475 Biso 1.0 O
Zn 1.0 0.126086687852 0.749833177376 0.00254248729049 Biso 1.0 Zn
C 1.0 0.00439140878845 0.687930023416 0.314274026657 Biso 1.0 C
C 1.0 0.0417766214856 0.701286249466 0.299626972251 Biso 1.0 C
H 1.0 0.0525185605237 0.685395456232 0.273214002263 Biso 1.0 H
O 1.0 0.060788843062 0.727875115646 0.31465697044 Biso 1.0 O
C 1.0 0.0636090118101 0.754828071281 0.4395459729 Biso 1.0 C
C 1.0 0.068517674201 0.70153742229 0.405618479211 Biso 1.0 C
C 1.0 0.0487231019603 0.818135736995 0.348374983197 Biso 1.0 C
C 1.0 0.0485292066667 0.846813338596 0.319551458436 Biso 1.0 C
C 1.0 0.0979131283484 0.702225646941 0.433724466764 Biso 1.0 C
C 1.0 0.0486960657238 0.792009095494 0.453160975073 Biso 1.0 C
Zn 1.0 0.001998555608 0.749903416856 0.376341959975 Biso 1.0 Zn
H 1.0 0.0619358595696 0.679960231917 0.383358494564 Biso 1.0 H
H 1.0 0.0706973595121 0.811211369021 0.370170480022 Biso 1.0 H
H 1.0 0.0699108887423 0.869156661651 0.313017476638 Biso 1.0 H
H 1.0 0.120153207457 0.680719807432 0.440343963538 Biso 1.0 H
H 1.0 0.021749091179 0.801967153286 0.43771998486 Biso 1.0 H
O 1.0 0.0637716673165 0.811635806638 0.479329452766 Biso 1.0 O
N 1.0 0.0469908357675 0.734544921074 0.409546491371 Biso 1.0 N
N 1.0 0.0152211995147 0.797266942895 0.345199995003 Biso 1.0 N
N 1.0 0.0150125744094 0.843490466615 0.298574478081 Biso 1.0 N
N 1.0 0.0947787050731 0.735727489407 0.454630473603 Biso 1.0 N
N 1.0 0.0148981832442 0.65733461728 0.20539550836 Biso 1.0 N
N 1.0 0.0457557637395 0.594422937749 0.265058004381 Biso 1.0 N
Zn 1.0 0.0022329352842 0.751342270381 0.128029986006 Biso 1.0 Zn
C 1.0 0.00489671321579 0.81412903033 0.189595483881 Biso 1.0 C
C 1.0 0.0422504510016 0.800624323354 0.204284498791 Biso 1.0 C
H 1.0 0.0532735272633 0.816768512181 0.230406499737 Biso 1.0 H
O 1.0 0.0608291748964 0.773566064068 0.189591974355 Biso 1.0 O
N 1.0 0.0455952326081 0.907386054558 0.236327964435 Biso 1.0 N
C 1.0 0.311119352947 0.504352974355 0.185271971946 Biso 1.0 C
C 1.0 0.296995450524 0.541929373489 0.198534483511 Biso 1.0 C
H 1.0 0.270883647439 0.552909237892 0.18244400733 Biso 1.0 H
O 1.0 0.312130458127 0.560859191185 0.225235975661 Biso 1.0 O
C 1.0 0.313029579882 0.686417985244 0.00577051096261 Biso 1.0 C
C 1.0 0.298382809995 0.699581608416 0.0433515069725 Biso 1.0 C
H 1.0 0.271378032283 0.684427662891 0.0533899983555 Biso 1.0 H
O 1.0 0.314035344571 0.725155725273 0.0633354873078 Biso 1.0 O
C 1.0 0.244155267959 0.561480177093 0.0610549947178 Biso 1.0 C
C 1.0 0.297215717969 0.565982449962 0.0953879994187 Biso 1.0 C
C 1.0 0.297184036618 0.595129666947 0.0669789831988 Biso 1.0 C
C 1.0 0.207031274731 0.54684447001 0.0468120006738 Biso 1.0 C
H 1.0 0.318916025013 0.559018072158 0.117458497643 Biso 1.0 H
H 1.0 0.31909356853 0.616960919743 0.0603599897827 Biso 1.0 H
H 1.0 0.196368803314 0.520229486302 0.0622810076685 Biso 1.0 H
O 1.0 0.188273786934 0.561854102299 0.0199674988476 Biso 1.0 O
N 1.0 0.263842070757 0.544862427469 0.0914704808803 Biso 1.0 N
N 1.0 0.263831000364 0.592199669273 0.0457469994486 Biso 1.0 N
Zn 1.0 0.374192027852 0.501358627537 0.246413977733 Biso 1.0 Zn
N 1.0 0.204510284749 0.656057970276 0.0135335018288 Biso 1.0 N
Zn 1.0 0.37647422556 0.74820416602 0.00268449724137 Biso 1.0 Zn
N 1.0 0.202009224255 0.514700794577 0.155126991914 Biso 1.0 N
C 1.0 0.186028861404 0.504824701369 0.311059496875 Biso 1.0 C
C 1.0 0.200366536457 0.54232330361 0.297701990419 Biso 1.0 C
H 1.0 0.226810687765 0.552977810296 0.313463983385 Biso 1.0 H
O 1.0 0.185105818699 0.561411993674 0.271209489825 Biso 1.0 O
C 1.0 0.436940768589 0.562646519217 0.253577996294 Biso 1.0 C
C 1.0 0.432050909178 0.597459461596 0.200787990505 Biso 1.0 C
C 1.0 0.317075252278 0.548829679995 0.344162489723 Biso 1.0 C
C 1.0 0.451426072064 0.683009314405 0.348638994608 Biso 1.0 C
C 1.0 0.451336618837 0.654042530641 0.320105991459 Biso 1.0 C
C 1.0 0.346232915494 0.548703426753 0.315745986049 Biso 1.0 C
C 1.0 0.403226831955 0.568965794076 0.20015395484 Biso 1.0 C
C 1.0 0.449976796273 0.548011590103 0.291210989824 Biso 1.0 C
Zn 1.0 0.497665073762 0.62547662315 0.252018480527 Biso 1.0 Zn
H 1.0 0.438509510055 0.620259063425 0.179762995364 Biso 1.0 H
H 1.0 0.309980576651 0.570644317598 0.366077478208 Biso 1.0 H
H 1.0 0.429884505557 0.689781533885 0.370936479446 Biso 1.0 H
H 1.0 0.429823646209 0.631770391742 0.313834483033 Biso 1.0 H
H 1.0 0.367947436032 0.570658598885 0.308899978055 Biso 1.0 H
H 1.0 0.380969222406 0.563028668666 0.178396000152 Biso 1.0 H
H 1.0 0.434122268745 0.521608825204 0.301681988302 Biso 1.0 H
O 1.0 0.476222056007 0.563067622682 0.310785977586 Biso 1.0 O
N 1.0 0.453017121206 0.593331502918 0.234323479962 Biso 1.0 N
N 1.0 0.296165059777 0.515339229218 0.340664988703 Biso 1.0 N
N 1.0 0.484813459915 0.704093383619 0.344866967581 Biso 1.0 N
N 1.0 0.484531915896 0.657398021747 0.298756973416 Biso 1.0 N
N 1.0 0.343312334385 0.515164019502 0.294840985926 Biso 1.0 N
N 1.0 0.406516741406 0.547349760826 0.233266972907 Biso 1.0 N
C 1.0 0.0607617164265 0.563370419301 0.245511987684 Biso 1.0 C
C 1.0 0.18073027362 0.547946740836 0.151333474286 Biso 1.0 C
C 1.0 0.0675501760789 0.598150353569 0.298085996847 Biso 1.0 C
C 1.0 0.0958420399782 0.569087879628 0.298041980963 Biso 1.0 C
C 1.0 0.151723048147 0.547892116304 0.179848006982 Biso 1.0 C
C 1.0 0.0458138033352 0.549284902954 0.208358470866 Biso 1.0 C
Zn 1.0 0.123285099562 0.501979113323 0.248267482691 Biso 1.0 Zn
H 1.0 0.187401715323 0.569482587718 0.129019993841 Biso 1.0 H
H 1.0 0.0615886094296 0.620503956929 0.319755989678 Biso 1.0 H
H 1.0 0.11868640818 0.562935312396 0.319131965249 Biso 1.0 H
H 1.0 0.12929077394 0.569250141718 0.186074478826 Biso 1.0 H
H 1.0 0.0194905188861 0.564945584094 0.197409477786 Biso 1.0 H
O 1.0 0.0606056461351 0.522231089204 0.189740003632 Biso 1.0 O
N 1.0 0.0913652898106 0.547377434292 0.26506147196 Biso 1.0 N
N 1.0 0.155230985931 0.514759531231 0.201241502321 Biso 1.0 N
C 1.0 0.255172951577 0.560693983927 0.435013455426 Biso 1.0 C
C 1.0 0.319451576143 0.652602954717 0.452598472211 Biso 1.0 C
C 1.0 0.202067037854 0.566329701948 0.400919965367 Biso 1.0 C
C 1.0 0.203003974181 0.595726924803 0.429000002005 Biso 1.0 C
C 1.0 0.348199718257 0.681199147427 0.453250488952 Biso 1.0 C
C 1.0 0.29214511631 0.5456995776 0.449178963757 Biso 1.0 C
Zn 1.0 0.250329849278 0.623548871727 0.497160975279 Biso 1.0 Zn
H 1.0 0.313425666311 0.630330371265 0.430900487068 Biso 1.0 H
H 1.0 0.180094727356 0.559783593578 0.378986967843 Biso 1.0 H
H 1.0 0.182098635407 0.618594987898 0.435216476594 Biso 1.0 H
H 1.0 0.371138407321 0.68745073899 0.432284973979 Biso 1.0 H
H 1.0 0.302408761515 0.518772739493 0.434026453759 Biso 1.0 H
O 1.0 0.311234479473 0.560857913093 0.475737488177 Biso 1.0 O
N 1.0 0.297589941762 0.65613287757 0.48554743743 Biso 1.0 N
N 1.0 0.234910377075 0.544382198367 0.404812966163 Biso 1.0 N
N 1.0 0.236306025433 0.592011789778 0.450077458263 Biso 1.0 N
N 1.0 0.344154379642 0.702344176064 0.486667968859 Biso 1.0 N
C 1.0 0.495273646321 0.813157124868 0.314722015514 Biso 1.0 C
C 1.0 0.45768351444 0.799082722363 0.301350974313 Biso 1.0 C
H 1.0 0.446782681882 0.772737749441 0.31706249163 Biso 1.0 H
O 1.0 0.438691726501 0.814527405989 0.274861493869 Biso 1.0 O
Zn 1.0 0.49846726004 0.876220897324 0.253361468346 Biso 1.0 Zn
N 1.0 0.455289222048 0.76484180942 0.409046488827 Biso 1.0 N
C 1.0 0.189311455494 0.811285720622 0.00503799928249 Biso 1.0 C
C 1.0 0.204143793542 0.797895375078 0.0424579866255 Biso 1.0 C
H 1.0 0.230949109472 0.813283989372 0.0526474924795 Biso 1.0 H
O 1.0 0.18884695793 0.771897431865 0.0621804898192 Biso 1.0 O
C 1.0 0.0629945910826 0.745636924141 0.0642074855933 Biso 1.0 C
C 1.0 0.183261513452 0.652128504812 0.0469085021436 Biso 1.0 C
C 1.0 0.0690494077143 0.798742194251 0.0982465011023 Biso 1.0 C
C 1.0 0.0491447886729 0.682842995763 0.155904988043 Biso 1.0 C
C 1.0 0.0487006760697 0.654145333678 0.184759497302 Biso 1.0 C
C 1.0 0.0984398134287 0.797519504949 0.0701919959147 Biso 1.0 C
C 1.0 0.154724195571 0.680942639959 0.0474634930833 Biso 1.0 C
C 1.0 0.0478610959232 0.7085849872 0.0505849889744 Biso 1.0 C
H 1.0 0.189399392801 0.629234935451 0.0679305050993 Biso 1.0 H
H 1.0 0.062997768953 0.82033238782 0.120640490906 Biso 1.0 H
H 1.0 0.0713601019494 0.68985844167 0.134381011056 Biso 1.0 H
H 1.0 0.0704132495542 0.632256177766 0.191882492164 Biso 1.0 H
H 1.0 0.121533585349 0.81817185698 0.0639495004997 Biso 1.0 H
H 1.0 0.132399329211 0.687113711738 0.0690879914149 Biso 1.0 H
H 1.0 0.0208255721407 0.698725898169 0.065899000074 Biso 1.0 H
O 1.0 0.0629889654871 0.68888425787 0.0244685109874 Biso 1.0 O
N 1.0 0.0468518578293 0.766169135542 0.0942935027972 Biso 1.0 N
N 1.0 0.0156026065462 0.703670668648 0.158810987172 Biso 1.0 N
N 1.0 0.0945087947024 0.764212599269 0.0492184901298 Biso 1.0 N
N 1.0 0.158414335894 0.702681647869 0.0144835005463 Biso 1.0 N
C 1.0 0.439451494815 0.754938598438 0.0647979877595 Biso 1.0 C
C 1.0 0.434385148859 0.702354067383 0.0997129794825 Biso 1.0 C
C 1.0 0.318652032296 0.845639605767 0.0472290015376 Biso 1.0 C
C 1.0 0.347219126196 0.816861201621 0.047851494918 Biso 1.0 C
C 1.0 0.40519188237 0.7023507888 0.0713690083364 Biso 1.0 C
C 1.0 0.454136732928 0.791850334265 0.0502200087892 Biso 1.0 C
H 1.0 0.441092694507 0.680879791184 0.122060995898 Biso 1.0 H
H 1.0 0.312391446818 0.868547456415 0.0682030036897 Biso 1.0 H
H 1.0 0.369487110762 0.810742309329 0.0695549890376 Biso 1.0 H
H 1.0 0.382625191894 0.681064725511 0.0653664959659 Biso 1.0 H
H 1.0 0.480818271849 0.802613812169 0.0655314926109 Biso 1.0 H
O 1.0 0.439047731431 0.810384443624 0.0232500047164 Biso 1.0 O
N 1.0 0.455824022171 0.735473927107 0.0954794917747 Biso 1.0 N
N 1.0 0.297528414853 0.841679521669 0.0137845045743 Biso 1.0 N
N 1.0 0.343688338342 0.795111802269 0.0148490076846 Biso 1.0 N
N 1.0 0.408552358623 0.73532127849 0.0497614878596 Biso 1.0 N
C 1.0 0.254884425978 0.936397071412 0.060732006497 Biso 1.0 C
C 1.0 0.316309392467 0.95094675736 0.151650492118 Biso 1.0 C
C 1.0 0.20071667241 0.93144835552 0.0932960005173 Biso 1.0 C
C 1.0 0.202375729369 0.901752781582 0.0655850093822 Biso 1.0 C
C 1.0 0.344864831857 0.951069787588 0.18063499365 Biso 1.0 C
C 1.0 0.292284998237 0.951356191291 0.0477200100486 Biso 1.0 C
Zn 1.0 0.248211649153 0.998040105906 0.123609507693 Biso 1.0 Zn
H 1.0 0.309436041257 0.928999253779 0.129836482895 Biso 1.0 H
H 1.0 0.178504457035 0.938099489694 0.114917503168 Biso 1.0 H
H 1.0 0.181149529992 0.879360001931 0.0586290106157 Biso 1.0 H
H 1.0 0.367134012471 0.929664472778 0.187353973592 Biso 1.0 H
H 1.0 0.301854908077 0.97847818846 0.063030501136 Biso 1.0 H
O 1.0 0.312469774022 0.936078104153 0.0220834859164 Biso 1.0 O
N 1.0 0.295487012104 0.984462103143 0.154715971925 Biso 1.0 N
N 1.0 0.233669908925 0.95319153112 0.0899729970291 Biso 1.0 N
N 1.0 0.236429718997 0.904910168459 0.0455510078192 Biso 1.0 N
N 1.0 0.341476929957 0.984555570553 0.20156949616 Biso 1.0 N
C 1.0 0.246141930674 0.937435215371 0.43610848337 Biso 1.0 C
C 1.0 0.181723146029 0.951160143122 0.344323480476 Biso 1.0 C
C 1.0 0.18281979642 0.845805368717 0.452199952286 Biso 1.0 C
C 1.0 0.299040163265 0.932097848432 0.401518989669 Biso 1.0 C
C 1.0 0.298713336331 0.90300809001 0.429885465124 Biso 1.0 C
C 1.0 0.154125406907 0.817142492956 0.45272593371 Biso 1.0 C
C 1.0 0.152803899585 0.951468329954 0.315682479015 Biso 1.0 C
C 1.0 0.208995880105 0.952194730652 0.449998486944 Biso 1.0 C
Zn 1.0 0.250251716779 0.998006319827 0.37200295579 Biso 1.0 Zn
Zn 1.0 0.25184182021 0.874247468011 0.497578986355 Biso 1.0 Zn
H 1.0 0.188987869015 0.929021259186 0.365823981392 Biso 1.0 H
H 1.0 0.188692208854 0.868302896327 0.43069296364 Biso 1.0 H
H 1.0 0.320304024231 0.938368111249 0.378850977218 Biso 1.0 H
H 1.0 0.319900010511 0.880401257766 0.436095983307 Biso 1.0 H
H 1.0 0.131079476886 0.811056608774 0.431828455996 Biso 1.0 H
H 1.0 0.130932905437 0.929660638502 0.308795978644 Biso 1.0 H
H 1.0 0.198615828881 0.978856281357 0.434398966841 Biso 1.0 H
O 1.0 0.189771321851 0.937242056802 0.476569986821 Biso 1.0 O
N 1.0 0.202457922866 0.98471238686 0.341222961341 Biso 1.0 N
N 1.0 0.204810937712 0.841996710713 0.48501247945 Biso 1.0 N
N 1.0 0.266027472063 0.953641419435 0.405617472495 Biso 1.0 N
N 1.0 0.265534589232 0.906486111221 0.451204952815 Biso 1.0 N
N 1.0 0.158403404576 0.795714950462 0.485920481834 Biso 1.0 N
N 1.0 0.155720308435 0.985198506299 0.294933464025 Biso 1.0 N
C 1.0 0.312862800794 0.995457582495 0.310485500665 Biso 1.0 C
C 1.0 0.299331498184 0.958061283167 0.296057994357 Biso 1.0 C
H 1.0 0.315496914618 0.946800627551 0.270055485071 Biso 1.0 H
O 1.0 0.272203833545 0.93964709216 0.310884971378 Biso 1.0 O
C 1.0 0.188938080061 0.687167169317 0.494341497843 Biso 1.0 C
C 1.0 0.202276095831 0.701781037702 0.456818488094 Biso 1.0 C
H 1.0 0.18703081543 0.72865091737 0.446616982039 Biso 1.0 H
O 1.0 0.228117119325 0.686250999771 0.437038437767 Biso 1.0 O
C 1.0 0.313421855648 0.810870729771 0.494619463464 Biso 1.0 C
C 1.0 0.300286667282 0.796316542717 0.456994467737 Biso 1.0 C
H 1.0 0.315626477158 0.769468001624 0.446862956445 Biso 1.0 H
O 1.0 0.274573871206 0.811845469263 0.437072973737 Biso 1.0 O
C 1.0 0.186060542755 0.995071043078 0.18572348431 Biso 1.0 C
C 1.0 0.199613235144 0.957798885362 0.200417001481 Biso 1.0 C
H 1.0 0.183850441678 0.947120150502 0.226945492191 Biso 1.0 H
O 1.0 0.226233274972 0.93884845149 0.185362995899 Biso 1.0 O
C 1.0 0.436288394215 0.938553712407 0.24491648689 Biso 1.0 C
C 1.0 0.430528618859 0.905745540375 0.298939972111 Biso 1.0 C
C 1.0 0.451623948387 0.818358347245 0.155645478892 Biso 1.0 C
C 1.0 0.451613378665 0.847574136634 0.183948992618 Biso 1.0 C
C 1.0 0.401890930341 0.93444181323 0.298018490911 Biso 1.0 C
C 1.0 0.450900256204 0.951151585464 0.207079982816 Biso 1.0 C
H 1.0 0.43678806392 0.883975747124 0.321080465098 Biso 1.0 H
H 1.0 0.429869958281 0.811166691377 0.133676001875 Biso 1.0 H
H 1.0 0.429576787568 0.869281303387 0.190560477606 Biso 1.0 H
H 1.0 0.379637298345 0.941514328715 0.319492957019 Biso 1.0 H
H 1.0 0.477574312875 0.935466953995 0.196955979952 Biso 1.0 H
O 1.0 0.435582448038 0.976874905647 0.18708551585 Biso 1.0 O
N 1.0 0.451965600747 0.908596018511 0.265642990579 Biso 1.0 N
N 1.0 0.485137560973 0.7974892753 0.15936497489 Biso 1.0 N
N 1.0 0.48509823048 0.844766002235 0.205049491499 Biso 1.0 N
N 1.0 0.405577955377 0.954845715328 0.264023491286 Biso 1.0 N
C 1.0 0.438633231434 0.744286981351 0.438850471597 Biso 1.0 C
C 1.0 0.433653279049 0.797906933473 0.40557499465 Biso 1.0 C
C 1.0 0.404167147812 0.796829557653 0.433638476393 Biso 1.0 C
C 1.0 0.453672277086 0.707211038512 0.452690474916 Biso 1.0 C
H 1.0 0.440538117878 0.820148398169 0.384046976815 Biso 1.0 H
H 1.0 0.381948034303 0.818263379467 0.44051846107 Biso 1.0 H
H 1.0 0.480643927065 0.69713006163 0.437432511361 Biso 1.0 H
O 1.0 0.438568422348 0.687915742129 0.479099977325 Biso 1.0 O
N 1.0 0.40738671298 0.763123331637 0.454183966857 Biso 1.0 N
C 1.0 0.0620910815018 0.937680053306 0.255949009479 Biso 1.0 C
C 1.0 0.0662467137766 0.903977828273 0.202445982723 Biso 1.0 C
C 1.0 0.0951640966116 0.932449323678 0.202085494312 Biso 1.0 C
C 1.0 0.0489327197156 0.952141273073 0.293677976652 Biso 1.0 C
H 1.0 0.0591373935207 0.882120791364 0.180584504019 Biso 1.0 H
H 1.0 0.116643635539 0.939197092707 0.179737491879 Biso 1.0 H
H 1.0 0.0648808901138 0.978378052745 0.304425486604 Biso 1.0 H
O 1.0 0.0224040175849 0.937153146067 0.312856457921 Biso 1.0 O
N 1.0 0.09238526104 0.953445371266 0.23571797811 Biso 1.0 N
C 1.0 0.495355088811 0.687665958536 0.18902649329 Biso 1.0 C
C 1.0 0.45773575112 0.702101783175 0.202058480751 Biso 1.0 C
H 1.0 0.447131927753 0.728314612518 0.185906496987 Biso 1.0 H
O 1.0 0.438463197983 0.687161556827 0.228596982698 Biso 1.0 O
Zn 1.0 0.126086687852 0.749833177376 0.502542490362 Biso 1.0 Zn
C 1.0 0.00439140878845 0.687930023416 0.814273998487 Biso 1.0 C
C 1.0 0.0417766214856 0.701286249466 0.799626944081 Biso 1.0 C
H 1.0 0.0525185605237 0.685395456232 0.773214002057 Biso 1.0 H
O 1.0 0.060788843062 0.727875115646 0.814656998199 Biso 1.0 O
C 1.0 0.0636090118101 0.754828071281 0.93954594473 Biso 1.0 C
C 1.0 0.068517674201 0.70153742229 0.905618479005 Biso 1.0 C
C 1.0 0.0487231019603 0.818135736995 0.848374955027 Biso 1.0 C
C 1.0 0.0485292066667 0.846813338596 0.819551486194 Biso 1.0 C
C 1.0 0.0979131283484 0.702225646941 0.933724438593 Biso 1.0 C
C 1.0 0.0486960657238 0.792009095494 0.953161002832 Biso 1.0 C
Zn 1.0 0.001998555608 0.749903416856 0.876341931805 Biso 1.0 Zn
H 1.0 0.0619358595696 0.679960231917 0.883358466394 Biso 1.0 H
H 1.0 0.0706973595121 0.811211369021 0.870170479816 Biso 1.0 H
H 1.0 0.0699108887423 0.869156661651 0.813017504396 Biso 1.0 H
H 1.0 0.120153207457 0.680719807432 0.940343935368 Biso 1.0 H
H 1.0 0.021749091179 0.801967153286 0.937719984654 Biso 1.0 H
O 1.0 0.0637716673165 0.811635806638 0.979329480524 Biso 1.0 O
N 1.0 0.0469908357675 0.734544921074 0.90954651913 Biso 1.0 N
N 1.0 0.0152211995147 0.797266942895 0.845199994797 Biso 1.0 N
N 1.0 0.0150125744094 0.843490466615 0.798574533803 Biso 1.0 N
N 1.0 0.0947787050731 0.735727489407 0.954630473397 Biso 1.0 N
N 1.0 0.0148981832442 0.65733461728 0.705395536119 Biso 1.0 N
N 1.0 0.0457557637395 0.594422937749 0.765057976211 Biso 1.0 N
Zn 1.0 0.0022329352842 0.751342270381 0.6280299858 Biso 1.0 Zn
C 1.0 0.00489671321579 0.81412903033 0.68959551164 Biso 1.0 C
C 1.0 0.0422504510016 0.800624323354 0.704284512568 Biso 1.0 C
H 1.0 0.0532735272633 0.816768512181 0.730406457585 Biso 1.0 H
O 1.0 0.0608291748964 0.773566064068 0.689591988132 Biso 1.0 O
N 1.0 0.0455952326081 0.907386054558 0.73632796423 Biso 1.0 N
C 1.0 0.311119352947 0.504352974355 0.685271999704 Biso 1.0 C
C 1.0 0.296995450524 0.541929373489 0.698534483305 Biso 1.0 C
H 1.0 0.270883647439 0.552909237892 0.682444021106 Biso 1.0 H
O 1.0 0.312130458127 0.560859191185 0.725236017402 Biso 1.0 O
C 1.0 0.313029579882 0.686417985244 0.505770526924 Biso 1.0 C
C 1.0 0.298382809995 0.699581608416 0.543351534731 Biso 1.0 C
H 1.0 0.271378032283 0.684427662891 0.553390008636 Biso 1.0 H
O 1.0 0.314035344571 0.725155725273 0.56333547312 Biso 1.0 O
C 1.0 0.244155267959 0.561480177093 0.56105498053 Biso 1.0 C
C 1.0 0.297215717969 0.565982449962 0.595387985231 Biso 1.0 C
C 1.0 0.297184036618 0.595129666947 0.566979003966 Biso 1.0 C
C 1.0 0.207031274731 0.54684447001 0.546812010955 Biso 1.0 C
H 1.0 0.318916025013 0.559018072158 0.617458511419 Biso 1.0 H
H 1.0 0.31909356853 0.616960919743 0.56036001055 Biso 1.0 H
H 1.0 0.196368803314 0.520229486302 0.562280993481 Biso 1.0 H
O 1.0 0.188273786934 0.561854102299 0.519967523111 Biso 1.0 O
N 1.0 0.263842070757 0.544862427469 0.591470459701 Biso 1.0 N
N 1.0 0.263831000364 0.592199669273 0.545746960792 Biso 1.0 N
Zn 1.0 0.374192027852 0.501358627537 0.746414033455 Biso 1.0 Zn
N 1.0 0.204510284749 0.656057970276 0.513533485893 Biso 1.0 N
Zn 1.0 0.37647422556 0.74820416602 0.502684493322 Biso 1.0 Zn
N 1.0 0.202009224255 0.514700794577 0.655126991708 Biso 1.0 N
C 1.0 0.186028861404 0.504824701369 0.811059496669 Biso 1.0 C
C 1.0 0.200366536457 0.54232330361 0.797701990213 Biso 1.0 C
H 1.0 0.226810687765 0.552977810296 0.813463983179 Biso 1.0 H
O 1.0 0.185105818699 0.561411993674 0.771209461655 Biso 1.0 O
C 1.0 0.436940768589 0.562646519217 0.753577996088 Biso 1.0 C
C 1.0 0.432050909178 0.597459461596 0.700787962335 Biso 1.0 C
C 1.0 0.317075252278 0.548829679995 0.844162461553 Biso 1.0 C
C 1.0 0.451426072064 0.683009314405 0.848638994402 Biso 1.0 C
C 1.0 0.451336618837 0.654042530641 0.820105963289 Biso 1.0 C
C 1.0 0.346232915494 0.548703426753 0.815745985843 Biso 1.0 C
C 1.0 0.403226831955 0.568965794076 0.700153954634 Biso 1.0 C
C 1.0 0.449976796273 0.548011590103 0.791211017583 Biso 1.0 C
Zn 1.0 0.497665073762 0.62547662315 0.752018424393 Biso 1.0 Zn
H 1.0 0.438509510055 0.620259063425 0.679763023123 Biso 1.0 H
H 1.0 0.309980576651 0.570644317598 0.866077505966 Biso 1.0 H
H 1.0 0.429884505557 0.689781533885 0.87093647924 Biso 1.0 H
H 1.0 0.429823646209 0.631770391742 0.813834510791 Biso 1.0 H
H 1.0 0.367947436032 0.570658598885 0.808899977849 Biso 1.0 H
H 1.0 0.380969222406 0.563028668666 0.678396013929 Biso 1.0 H
H 1.0 0.434122268745 0.521608825204 0.801681988096 Biso 1.0 H
O 1.0 0.476222056007 0.563067622682 0.810785949416 Biso 1.0 O
N 1.0 0.453017121206 0.593331502918 0.734323479756 Biso 1.0 N
N 1.0 0.296165059777 0.515339229218 0.840664960533 Biso 1.0 N
N 1.0 0.484813459915 0.704093383619 0.84486699534 Biso 1.0 N
N 1.0 0.484531915896 0.657398021747 0.798756973211 Biso 1.0 N
N 1.0 0.343312334385 0.515164019502 0.794841013685 Biso 1.0 N
N 1.0 0.406516741406 0.547349760826 0.733266930755 Biso 1.0 N
C 1.0 0.0607617164265 0.563370419301 0.745512015442 Biso 1.0 C
C 1.0 0.18073027362 0.547946740836 0.651333460098 Biso 1.0 C
C 1.0 0.0675501760789 0.598150353569 0.798085996642 Biso 1.0 C
C 1.0 0.0958420399782 0.569087879628 0.798041980758 Biso 1.0 C
C 1.0 0.151723048147 0.547892116304 0.679848034741 Biso 1.0 C
C 1.0 0.0458138033352 0.549284902954 0.70835847066 Biso 1.0 C
Zn 1.0 0.123285099562 0.501979113323 0.748267454521 Biso 1.0 Zn
H 1.0 0.187401715323 0.569482587718 0.629019979653 Biso 1.0 H
H 1.0 0.0615886094296 0.620503956929 0.819755961508 Biso 1.0 H
H 1.0 0.11868640818 0.562935312396 0.819131965044 Biso 1.0 H
H 1.0 0.12929077394 0.569250141718 0.686074520567 Biso 1.0 H
H 1.0 0.0194905188861 0.564945584094 0.69740947758 Biso 1.0 H
O 1.0 0.0606056461351 0.522231089204 0.689739975462 Biso 1.0 O
N 1.0 0.0913652898106 0.547377434292 0.765061499718 Biso 1.0 N
N 1.0 0.155230985931 0.514759531231 0.701241488133 Biso 1.0 N
C 1.0 0.255172951577 0.560693983927 0.935013483185 Biso 1.0 C
C 1.0 0.319451576143 0.652602954717 0.952598472005 Biso 1.0 C
C 1.0 0.202067037854 0.566329701948 0.900919965161 Biso 1.0 C
C 1.0 0.203003974181 0.595726924803 0.929000029763 Biso 1.0 C
C 1.0 0.348199718257 0.681199147427 0.953250488746 Biso 1.0 C
C 1.0 0.29214511631 0.5456995776 0.949178879658 Biso 1.0 C
Zn 1.0 0.250329849278 0.623548871727 0.997161003038 Biso 1.0 Zn
H 1.0 0.313425666311 0.630330371265 0.930900486862 Biso 1.0 H
H 1.0 0.180094727356 0.559783593578 0.878986967637 Biso 1.0 H
H 1.0 0.182098635407 0.618594987898 0.935216504352 Biso 1.0 H
H 1.0 0.371138407321 0.68745073899 0.932284945809 Biso 1.0 H
H 1.0 0.302408761515 0.518772739493 0.934026453553 Biso 1.0 H
O 1.0 0.311234479473 0.560857913093 0.975737515936 Biso 1.0 O
N 1.0 0.297589941762 0.65613287757 0.98554740926 Biso 1.0 N
N 1.0 0.234910377075 0.544382198367 0.904812993922 Biso 1.0 N
N 1.0 0.236306025433 0.592011789778 0.950077430092 Biso 1.0 N
N 1.0 0.344154379642 0.702344176064 0.986667996618 Biso 1.0 N
C 1.0 0.495273646321 0.813157124868 0.814721987344 Biso 1.0 C
C 1.0 0.45768351444 0.799082722363 0.801350946143 Biso 1.0 C
H 1.0 0.446782681882 0.772737749441 0.817062491425 Biso 1.0 H
O 1.0 0.438691726501 0.814527405989 0.774861493663 Biso 1.0 O
Zn 1.0 0.49846726004 0.876220897324 0.753361440176 Biso 1.0 Zn
N 1.0 0.455289222048 0.76484180942 0.909046460656 Biso 1.0 N
C 1.0 0.189311455494 0.811285720622 0.505038028789 Biso 1.0 C
C 1.0 0.204143793542 0.797895375078 0.54245801788 Biso 1.0 C
H 1.0 0.230949109472 0.813283989372 0.552647499265 Biso 1.0 H
O 1.0 0.18884695793 0.771897431865 0.562180545542 Biso 1.0 O
C 1.0 0.0629945910826 0.745636924141 0.564207513352 Biso 1.0 C
C 1.0 0.183261513452 0.652128504812 0.546908487956 Biso 1.0 C
C 1.0 0.0690494077143 0.798742194251 0.598246500896 Biso 1.0 C
C 1.0 0.0491447886729 0.682842995763 0.655905015801 Biso 1.0 C
C 1.0 0.0487006760697 0.654145333678 0.68475952506 Biso 1.0 C
C 1.0 0.0984398134287 0.797519504949 0.570191995709 Biso 1.0 C
C 1.0 0.154724195571 0.680942639959 0.547463468409 Biso 1.0 C
C 1.0 0.0478610959232 0.7085849872 0.550584960804 Biso 1.0 C
H 1.0 0.189399392801 0.629234935451 0.567930518876 Biso 1.0 H
H 1.0 0.062997768953 0.82033238782 0.620640518664 Biso 1.0 H
H 1.0 0.0713601019494 0.68985844167 0.634380968904 Biso 1.0 H
H 1.0 0.0704132495542 0.632256177766 0.691882491958 Biso 1.0 H
H 1.0 0.121533585349 0.81817185698 0.563949514276 Biso 1.0 H
H 1.0 0.132399329211 0.687113711738 0.569087963245 Biso 1.0 H
H 1.0 0.0208255721407 0.698725898169 0.565899020841 Biso 1.0 H
O 1.0 0.0629889654871 0.68888425787 0.524468496799 Biso 1.0 O
N 1.0 0.0468518578293 0.766169135542 0.594293460645 Biso 1.0 N
N 1.0 0.0156026065462 0.703670668648 0.658810959002 Biso 1.0 N
N 1.0 0.0945087947024 0.764212599269 0.549218454969 Biso 1.0 N
N 1.0 0.158414335894 0.702681647869 0.514483490728 Biso 1.0 N
C 1.0 0.439451494815 0.754938598438 0.564798008527 Biso 1.0 C
C 1.0 0.434385148859 0.702354067383 0.599712951312 Biso 1.0 C
C 1.0 0.318652032296 0.845639605767 0.547229015314 Biso 1.0 C
C 1.0 0.347219126196 0.816861201621 0.547851501703 Biso 1.0 C
C 1.0 0.40519188237 0.7023507888 0.571369015122 Biso 1.0 C
C 1.0 0.454136732928 0.791850334265 0.550220026061 Biso 1.0 C
H 1.0 0.441092694507 0.680879791184 0.622060995692 Biso 1.0 H
H 1.0 0.312391446818 0.868547456415 0.568203059413 Biso 1.0 H
H 1.0 0.369487110762 0.810742309329 0.569554967859 Biso 1.0 H
H 1.0 0.382625191894 0.681064725511 0.565366523724 Biso 1.0 H
H 1.0 0.480818271849 0.802613812169 0.565531513378 Biso 1.0 H
O 1.0 0.439047731431 0.810384443624 0.523249978294 Biso 1.0 O
N 1.0 0.455824022171 0.735473927107 0.595479484578 Biso 1.0 N
N 1.0 0.297528414853 0.841679521669 0.513784549811 Biso 1.0 N
N 1.0 0.343688338342 0.795111802269 0.514848984758 Biso 1.0 N
N 1.0 0.408552358623 0.73532127849 0.54976146668 Biso 1.0 N
C 1.0 0.254884425978 0.936397071412 0.560731992309 Biso 1.0 C
C 1.0 0.316309392467 0.95094675736 0.651650463948 Biso 1.0 C
C 1.0 0.20071667241 0.93144835552 0.593295972347 Biso 1.0 C
C 1.0 0.202375729369 0.901752781582 0.565585037141 Biso 1.0 C
C 1.0 0.344864831857 0.951069787588 0.680634951497 Biso 1.0 C
C 1.0 0.292284998237 0.951356191291 0.547720013338 Biso 1.0 C
Zn 1.0 0.248211649153 0.998040105906 0.623609493505 Biso 1.0 Zn
H 1.0 0.309436041257 0.928999253779 0.629836482689 Biso 1.0 H
H 1.0 0.178504457035 0.938099489694 0.614917502962 Biso 1.0 H
H 1.0 0.181149529992 0.879360001931 0.558629017401 Biso 1.0 H
H 1.0 0.367134012471 0.929664472778 0.687353945422 Biso 1.0 H
H 1.0 0.301854908077 0.97847818846 0.563030493939 Biso 1.0 H
O 1.0 0.312469774022 0.936078104153 0.522083473476 Biso 1.0 O
N 1.0 0.295487012104 0.984462103143 0.654715971719 Biso 1.0 N
N 1.0 0.233669908925 0.95319153112 0.589972968859 Biso 1.0 N
N 1.0 0.236429718997 0.904910168459 0.54555098664 Biso 1.0 N
N 1.0 0.341476929957 0.984555570553 0.701569509936 Biso 1.0 N
C 1.0 0.246141930674 0.937435215371 0.9361084552 Biso 1.0 C
C 1.0 0.181723146029 0.951160143122 0.84432348027 Biso 1.0 C
C 1.0 0.18281979642 0.845805368717 0.952200035973 Biso 1.0 C
C 1.0 0.299040163265 0.932097848432 0.901519017427 Biso 1.0 C
C 1.0 0.298713336331 0.90300809001 0.929885436954 Biso 1.0 C
C 1.0 0.154125406907 0.817142492956 0.952725989432 Biso 1.0 C
C 1.0 0.152803899585 0.951468329954 0.815682450844 Biso 1.0 C
C 1.0 0.208995880105 0.952194730652 0.949998458773 Biso 1.0 C
Zn 1.0 0.250251716779 0.998006319827 0.872002983549 Biso 1.0 Zn
Zn 1.0 0.25184182021 0.874247468011 0.997579014113 Biso 1.0 Zn
H 1.0 0.188987869015 0.929021259186 0.865823981186 Biso 1.0 H
H 1.0 0.188692208854 0.868302896327 0.930692991399 Biso 1.0 H
H 1.0 0.320304024231 0.938368111249 0.878851004976 Biso 1.0 H
H 1.0 0.319900010511 0.880401257766 0.93609603903 Biso 1.0 H
H 1.0 0.131079476886 0.811056608774 0.93182845579 Biso 1.0 H
H 1.0 0.130932905437 0.929660638502 0.808796006403 Biso 1.0 H
H 1.0 0.198615828881 0.978856281357 0.93439893867 Biso 1.0 H
O 1.0 0.189771321851 0.937242056802 0.976569958651 Biso 1.0 O
N 1.0 0.202457922866 0.98471238686 0.841222961135 Biso 1.0 N
N 1.0 0.204810937712 0.841996710713 0.985012507209 Biso 1.0 N
N 1.0 0.266027472063 0.953641419435 0.905617472289 Biso 1.0 N
N 1.0 0.265534589232 0.906486111221 0.951204952609 Biso 1.0 N
N 1.0 0.158403404576 0.795714950462 0.985920453664 Biso 1.0 N
N 1.0 0.155720308435 0.985198506299 0.79493346382 Biso 1.0 N
C 1.0 0.312862800794 0.995457582495 0.810485500459 Biso 1.0 C
C 1.0 0.299331498184 0.958061283167 0.796058022115 Biso 1.0 C
H 1.0 0.315496914618 0.946800627551 0.770055484865 Biso 1.0 H
O 1.0 0.272203833545 0.93964709216 0.810884943208 Biso 1.0 O
C 1.0 0.188938080061 0.687167169317 0.994341525602 Biso 1.0 C
C 1.0 0.202276095831 0.701781037702 0.956818515853 Biso 1.0 C
H 1.0 0.18703081543 0.72865091737 0.946617009798 Biso 1.0 H
O 1.0 0.228117119325 0.686250999771 0.93703849349 Biso 1.0 O
C 1.0 0.313421855648 0.810870729771 0.994619491222 Biso 1.0 C
C 1.0 0.300286667282 0.796316542717 0.956994467531 Biso 1.0 C
H 1.0 0.315626477158 0.769468001624 0.946862984204 Biso 1.0 H
O 1.0 0.274573871206 0.811845469263 0.937073001496 Biso 1.0 O
C 1.0 0.186060542755 0.995071043078 0.68572345614 Biso 1.0 C
C 1.0 0.199613235144 0.957798885362 0.700416987293 Biso 1.0 C
H 1.0 0.183850441678 0.947120150502 0.726945533931 Biso 1.0 H
O 1.0 0.226233274972 0.93884845149 0.685362995693 Biso 1.0 O
C 1.0 0.436288394215 0.938553712407 0.744916486684 Biso 1.0 C
C 1.0 0.430528618859 0.905745540375 0.798939915976 Biso 1.0 C
C 1.0 0.451623948387 0.818358347245 0.655645506651 Biso 1.0 C
C 1.0 0.451613378665 0.847574136634 0.683949006394 Biso 1.0 C
C 1.0 0.401890930341 0.93444181323 0.798018490705 Biso 1.0 C
C 1.0 0.450900256204 0.951151585464 0.707079996593 Biso 1.0 C
H 1.0 0.43678806392 0.883975747124 0.821080464893 Biso 1.0 H
H 1.0 0.429869958281 0.811166691377 0.633675987687 Biso 1.0 H
H 1.0 0.429576787568 0.869281303387 0.690560449436 Biso 1.0 H
H 1.0 0.379637298345 0.941514328715 0.819492928849 Biso 1.0 H
H 1.0 0.477574312875 0.935466953995 0.696955951782 Biso 1.0 H
O 1.0 0.435582448038 0.976874905647 0.68708548768 Biso 1.0 O
N 1.0 0.451965600747 0.908596018511 0.765642990373 Biso 1.0 N
N 1.0 0.485137560973 0.7974892753 0.659364988667 Biso 1.0 N
N 1.0 0.48509823048 0.844766002235 0.705049505275 Biso 1.0 N
N 1.0 0.405577955377 0.954845715328 0.764023463116 Biso 1.0 N
C 1.0 0.438633231434 0.744286981351 0.938850415463 Biso 1.0 C
C 1.0 0.433653279049 0.797906933473 0.90557496648 Biso 1.0 C
C 1.0 0.404167147812 0.796829557653 0.933638476187 Biso 1.0 C
C 1.0 0.453672277086 0.707211038512 0.952690530639 Biso 1.0 C
H 1.0 0.440538117878 0.820148398169 0.884046948645 Biso 1.0 H
H 1.0 0.381948034303 0.818263379467 0.9405184329 Biso 1.0 H
H 1.0 0.480643927065 0.69713006163 0.937432455227 Biso 1.0 H
O 1.0 0.438568422348 0.687915742129 0.979099949155 Biso 1.0 O
N 1.0 0.40738671298 0.763123331637 0.954184050544 Biso 1.0 N
C 1.0 0.0620910815018 0.937680053306 0.755949037237 Biso 1.0 C
C 1.0 0.0662467137766 0.903977828273 0.702445968535 Biso 1.0 C
C 1.0 0.0951640966116 0.932449323678 0.702085508088 Biso 1.0 C
C 1.0 0.0489327197156 0.952141273073 0.793677976446 Biso 1.0 C
H 1.0 0.0591373935207 0.882120791364 0.680584503813 Biso 1.0 H
H 1.0 0.116643635539 0.939197092707 0.679737519637 Biso 1.0 H
H 1.0 0.0648808901138 0.978378052745 0.804425458434 Biso 1.0 H
O 1.0 0.0224040175849 0.937153146067 0.812856429751 Biso 1.0 O
N 1.0 0.09238526104 0.953445371266 0.73571794994 Biso 1.0 N
C 1.0 0.495355088811 0.687665958536 0.689026493084 Biso 1.0 C
C 1.0 0.45773575112 0.702101783175 0.702058494528 Biso 1.0 C
H 1.0 0.447131927753 0.728314612518 0.685906454834 Biso 1.0 H
O 1.0 0.438463197983 0.687161556827 0.728596996475 Biso 1.0 O
Zn 1.0 0.626086696672 0.249833161426 0.00254248729049 Biso 1.0 Zn
C 1.0 0.50439142239 0.187930021358 0.314274026657 Biso 1.0 C
C 1.0 0.541776585107 0.201286275192 0.299626972251 Biso 1.0 C
H 1.0 0.552518538053 0.185395481959 0.273214002263 Biso 1.0 H
O 1.0 0.560788844929 0.227875113587 0.31465697044 Biso 1.0 O
C 1.0 0.563609013677 0.254828138685 0.4395459729 Biso 1.0 C
C 1.0 0.568517703883 0.201537420232 0.405618479211 Biso 1.0 C
C 1.0 0.548723117735 0.318135748829 0.348374983197 Biso 1.0 C
C 1.0 0.548529191149 0.34681335043 0.319551458436 Biso 1.0 C
C 1.0 0.59791315803 0.202225630991 0.433724466764 Biso 1.0 C
C 1.0 0.548696025868 0.292009107328 0.453160975073 Biso 1.0 C
Zn 1.0 0.501998548565 0.24990342869 0.376341959975 Biso 1.0 Zn
H 1.0 0.561935826668 0.179960229858 0.383358494564 Biso 1.0 H
H 1.0 0.570697347472 0.311211325286 0.370170480022 Biso 1.0 H
H 1.0 0.569910904517 0.369156645701 0.313017476638 Biso 1.0 H
H 1.0 0.620153188463 0.180719819266 0.440343963538 Biso 1.0 H
H 1.0 0.521749075662 0.301967137335 0.43771998486 Biso 1.0 H
O 1.0 0.563771676137 0.311635818472 0.479329452766 Biso 1.0 O
N 1.0 0.546990795912 0.234544932908 0.409546491371 Biso 1.0 N
N 1.0 0.515221159659 0.297266954729 0.345199995003 Biso 1.0 N
N 1.0 0.515012546723 0.343490506234 0.298574478081 Biso 1.0 N
N 1.0 0.594778734755 0.235727473456 0.454630473603 Biso 1.0 N
N 1.0 0.514898171204 0.157334615222 0.20539550836 Biso 1.0 N
N 1.0 0.545755751699 0.094422914852 0.265058004381 Biso 1.0 N
Zn 1.0 0.502232918246 0.251342309999 0.128029986006 Biso 1.0 Zn
C 1.0 0.504896710737 0.314129097734 0.189595483881 Biso 1.0 C
C 1.0 0.542250442438 0.300624307404 0.204284498791 Biso 1.0 C
H 1.0 0.553273494361 0.316768524015 0.230406499737 Biso 1.0 H
O 1.0 0.560829176763 0.273566075902 0.189591974355 Biso 1.0 O
N 1.0 0.545595203183 0.407386038607 0.236327964435 Biso 1.0 N
C 1.0 0.811119361768 0.00435298011122 0.185271971946 Biso 1.0 C
C 1.0 0.796995487159 0.0419293714306 0.198534483511 Biso 1.0 C
H 1.0 0.770883600629 0.0529092601457 0.18244400733 Biso 1.0 H
O 1.0 0.812130439133 0.0608592169108 0.225235975661 Biso 1.0 O
C 1.0 0.813029588703 0.186417983186 0.00577051096261 Biso 1.0 C
C 1.0 0.798382791001 0.199581606358 0.0433515069725 Biso 1.0 C
H 1.0 0.771378041103 0.184427674725 0.0533899983555 Biso 1.0 H
O 1.0 0.814035381207 0.225155723215 0.0633354873078 Biso 1.0 O
C 1.0 0.74415527678 0.0614801541965 0.0610549947178 Biso 1.0 C
C 1.0 0.79721572679 0.0659824479035 0.0953879994187 Biso 1.0 C
C 1.0 0.797184073254 0.095129650996 0.0669789831988 Biso 1.0 C
C 1.0 0.707031241829 0.0468444957363 0.0468120006738 Biso 1.0 C
H 1.0 0.818916033834 0.05901810483 0.117458497643 Biso 1.0 H
H 1.0 0.819093605165 0.116960945469 0.0603599897827 Biso 1.0 H
H 1.0 0.69636883995 0.0202294668787 0.0622810076685 Biso 1.0 H
O 1.0 0.68827376794 0.0618541210796 0.0199674988476 Biso 1.0 O
N 1.0 0.763842051763 0.0448624288842 0.0914704808803 Biso 1.0 N
N 1.0 0.763831037 0.0921997088913 0.0457469994486 Biso 1.0 N
Zn 1.0 0.874192008858 0.00135864751131 0.246413977733 Biso 1.0 Zn
N 1.0 0.704510251847 0.156057940433 0.0135335018288 Biso 1.0 N
Zn 1.0 0.876474178751 0.248204150069 0.00268449724137 Biso 1.0 Zn
N 1.0 0.702009177446 0.0147007438961 0.155126991914 Biso 1.0 N
C 1.0 0.686028814595 0.00482469323268 0.311059496875 Biso 1.0 C
C 1.0 0.700366531371 0.0423232668213 0.297701990419 Biso 1.0 C
H 1.0 0.726810696586 0.052977815184 0.313463983385 Biso 1.0 H
O 1.0 0.685105799704 0.0614119777234 0.271209489825 Biso 1.0 O
C 1.0 0.93694077741 0.0626464824283 0.253577996294 Biso 1.0 C
C 1.0 0.932050890183 0.0974594386993 0.200787990505 Biso 1.0 C
C 1.0 0.817075233284 0.0488296779371 0.344162489723 Biso 1.0 C
C 1.0 0.951426080884 0.183009326239 0.348638994608 Biso 1.0 C
C 1.0 0.951336627657 0.154042528583 0.320105991459 Biso 1.0 C
C 1.0 0.846232868684 0.0487034073293 0.315745986049 Biso 1.0 C
C 1.0 0.903226868591 0.0689657989642 0.20015395484 Biso 1.0 C
C 1.0 0.949976805093 0.0480116158293 0.291210989824 Biso 1.0 C
Zn 1.0 0.997665054768 0.125476579415 0.252018480527 Biso 1.0 Zn
H 1.0 0.938509546691 0.120259061367 0.179762995364 Biso 1.0 H
H 1.0 0.809980557656 0.0706443085938 0.366077478208 Biso 1.0 H
H 1.0 0.929884486562 0.189781531827 0.370936479446 Biso 1.0 H
H 1.0 0.929823627215 0.131770389684 0.313834483033 Biso 1.0 H
H 1.0 0.867947472668 0.0706586454497 0.308899978055 Biso 1.0 H
H 1.0 0.880969203411 0.0630287013389 0.178396000152 Biso 1.0 H
H 1.0 0.934122221935 0.0216087988341 0.301681988302 Biso 1.0 H
O 1.0 0.976222092642 0.0630676206236 0.310785977586 Biso 1.0 O
N 1.0 0.953017102212 0.0933315425367 0.234323479962 Biso 1.0 N
N 1.0 0.796165040783 0.015339280992 0.340664988703 Biso 1.0 N
N 1.0 0.98481349655 0.204093367669 0.344866967581 Biso 1.0 N
N 1.0 0.984531896902 0.157398033581 0.298756973416 Biso 1.0 N
N 1.0 0.843312343206 0.0151640382824 0.294840985926 Biso 1.0 N
N 1.0 0.906516722411 0.0473497726598 0.233266972907 Biso 1.0 N
C 1.0 0.560761697432 0.0633704172425 0.245511987684 Biso 1.0 C
C 1.0 0.680730268533 0.0479467630895 0.151333474286 Biso 1.0 C
C 1.0 0.5675501849 0.0981503792957 0.298085996847 Biso 1.0 C
C 1.0 0.595842048799 0.0690878706237 0.298041980963 Biso 1.0 C
C 1.0 0.651723001338 0.0478920760419 0.179848006982 Biso 1.0 C
C 1.0 0.54581377391 0.0492849008958 0.208358470866 Biso 1.0 C
Zn 1.0 0.623285108383 0.00197911994748 0.248267482691 Biso 1.0 Zn
H 1.0 0.687401710236 0.0694825509294 0.129019993841 Biso 1.0 H
H 1.0 0.561588583482 0.120503940978 0.319755989678 Biso 1.0 H
H 1.0 0.618686444816 0.0629352686604 0.319131965249 Biso 1.0 H
H 1.0 0.629290768853 0.0692501743903 0.186074478826 Biso 1.0 H
H 1.0 0.519490548568 0.0649455889821 0.197409477786 Biso 1.0 H
O 1.0 0.560605654956 0.0222311079846 0.189740003632 Biso 1.0 O
N 1.0 0.591365270816 0.0473774218143 0.26506147196 Biso 1.0 N
N 1.0 0.655230980844 0.0147595673767 0.201241502321 Biso 1.0 N
C 1.0 0.755172932582 0.0606939679761 0.435013455426 Biso 1.0 C
C 1.0 0.819451584964 0.152602966551 0.452598472211 Biso 1.0 C
C 1.0 0.702067032767 0.0663297276741 0.400919965367 Biso 1.0 C
C 1.0 0.703004010817 0.0957269366372 0.429000002005 Biso 1.0 C
C 1.0 0.848199727078 0.181199131477 0.453250488952 Biso 1.0 C
C 1.0 0.792145152946 0.0456996067998 0.449178963757 Biso 1.0 C
Zn 1.0 0.750329830283 0.123548883561 0.497160975279 Biso 1.0 Zn
H 1.0 0.813425675131 0.130330410883 0.430900487068 Biso 1.0 H
H 1.0 0.680094694454 0.0597836054124 0.378986967843 Biso 1.0 H
H 1.0 0.682098602505 0.118594999732 0.435216476594 Biso 1.0 H
H 1.0 0.871138416141 0.187450764716 0.432284973979 Biso 1.0 H
H 1.0 0.802408742521 0.0187727252788 0.434026453759 Biso 1.0 H
O 1.0 0.811234460479 0.0608579040883 0.475737488177 Biso 1.0 O
N 1.0 0.797589950583 0.156132903296 0.48554743743 Biso 1.0 N
N 1.0 0.734910385895 0.0443822136738 0.404812966163 Biso 1.0 N
N 1.0 0.736306034254 0.0920118224501 0.450077458263 Biso 1.0 N
N 1.0 0.844154360647 0.202344215682 0.486667968859 Biso 1.0 N
C 1.0 0.995273627327 0.313157136702 0.314722015514 Biso 1.0 C
C 1.0 0.957683467631 0.299082706413 0.301350974313 Biso 1.0 C
H 1.0 0.946782746333 0.272737733491 0.31706249163 Biso 1.0 H
O 1.0 0.938691679692 0.314527417823 0.274861493869 Biso 1.0 O
Zn 1.0 0.998467241046 0.376220909158 0.253361468346 Biso 1.0 Zn
N 1.0 0.955289258684 0.264841821254 0.409046488827 Biso 1.0 N
C 1.0 0.6893114365 0.311285760241 0.00503799928249 Biso 1.0 C
C 1.0 0.70414381627 0.297895359127 0.0424579866255 Biso 1.0 C
H 1.0 0.730949076571 0.313283973421 0.0526474924795 Biso 1.0 H
O 1.0 0.688846925029 0.271897443699 0.0621804898192 Biso 1.0 O
C 1.0 0.562994579042 0.245636935975 0.0642074855933 Biso 1.0 C
C 1.0 0.683261494457 0.152128516646 0.0469085021436 Biso 1.0 C
C 1.0 0.569049416535 0.298742150516 0.0982465011023 Biso 1.0 C
C 1.0 0.549144794017 0.182842952028 0.155904988043 Biso 1.0 C
C 1.0 0.548700698798 0.154145345512 0.184759497302 Biso 1.0 C
C 1.0 0.598439808342 0.297519488999 0.0701919959147 Biso 1.0 C
C 1.0 0.654724190485 0.180942665686 0.0474634930833 Biso 1.0 C
C 1.0 0.547861073452 0.208584957357 0.0505849889744 Biso 1.0 C
H 1.0 0.689399443344 0.129234905608 0.0679305050993 Biso 1.0 H
H 1.0 0.562997749959 0.320332399654 0.120640490906 Biso 1.0 H
H 1.0 0.571360124678 0.18985842572 0.134381011056 Biso 1.0 H
H 1.0 0.570413244467 0.132256147923 0.191882492164 Biso 1.0 H
H 1.0 0.62153359417 0.318171868814 0.0639495004997 Biso 1.0 H
H 1.0 0.632399324124 0.187113695788 0.0690879914149 Biso 1.0 H
H 1.0 0.5208255601 0.198725868326 0.065899000074 Biso 1.0 H
O 1.0 0.5629889604 0.188884255812 0.0244685109874 Biso 1.0 O
N 1.0 0.546851887511 0.266169147376 0.0942935027972 Biso 1.0 N
N 1.0 0.515602615367 0.203670680482 0.158810987172 Biso 1.0 N
N 1.0 0.594508761801 0.264212611103 0.0492184901298 Biso 1.0 N
N 1.0 0.658414358622 0.202681687488 0.0144835005463 Biso 1.0 N
C 1.0 0.939451475821 0.254938582487 0.0647979877595 Biso 1.0 C
C 1.0 0.934385129865 0.202354065325 0.0997129794825 Biso 1.0 C
C 1.0 0.818652013302 0.345639589816 0.0472290015376 Biso 1.0 C
C 1.0 0.847219135017 0.31686124124 0.047851494918 Biso 1.0 C
C 1.0 0.90519183556 0.202350786741 0.0713690083364 Biso 1.0 C
C 1.0 0.954136713933 0.291850346099 0.0502200087892 Biso 1.0 C
H 1.0 0.941092675513 0.180879761341 0.122060995898 Biso 1.0 H
H 1.0 0.812391455638 0.368547468249 0.0682030036897 Biso 1.0 H
H 1.0 0.869487091768 0.310742293378 0.0695549890376 Biso 1.0 H
H 1.0 0.882625145085 0.181064737345 0.0653664959659 Biso 1.0 H
H 1.0 0.980818252855 0.302613768434 0.0655314926109 Biso 1.0 H
O 1.0 0.939047712436 0.310384455458 0.0232500047164 Biso 1.0 O
N 1.0 0.955823975362 0.235473938941 0.0954794917747 Biso 1.0 N
N 1.0 0.797528368044 0.341679505718 0.0137845045743 Biso 1.0 N
N 1.0 0.843688291532 0.295111786319 0.0148490076846 Biso 1.0 N
N 1.0 0.908552339629 0.23532126254 0.0497614878596 Biso 1.0 N
C 1.0 0.754884434799 0.436397027677 0.060732006497 Biso 1.0 C
C 1.0 0.816309373472 0.450946824763 0.151650492118 Biso 1.0 C
C 1.0 0.700716667323 0.431448367354 0.0932960005173 Biso 1.0 C
C 1.0 0.702375724283 0.401752765632 0.0655850093822 Biso 1.0 C
C 1.0 0.844864868493 0.451069743853 0.18063499365 Biso 1.0 C
C 1.0 0.792285007058 0.451356203125 0.0477200100486 Biso 1.0 C
Zn 1.0 0.748211602343 0.498040145524 0.123609507693 Biso 1.0 Zn
H 1.0 0.809436050078 0.428999265613 0.129836482895 Biso 1.0 H
H 1.0 0.678504451948 0.438099445959 0.114917503168 Biso 1.0 H
H 1.0 0.68114955272 0.379360013765 0.0586290106157 Biso 1.0 H
H 1.0 0.867134049107 0.429664484612 0.187353973592 Biso 1.0 H
H 1.0 0.801854889082 0.47847811694 0.063030501136 Biso 1.0 H
O 1.0 0.812469782842 0.436078143772 0.0220834859164 Biso 1.0 O
N 1.0 0.795486965295 0.484462087193 0.154715971925 Biso 1.0 N
N 1.0 0.733669945561 0.453191542954 0.0899729970291 Biso 1.0 N
N 1.0 0.736429700003 0.404910152508 0.0455510078192 Biso 1.0 N
N 1.0 0.841476938778 0.484555610171 0.20156949616 Biso 1.0 N
C 1.0 0.746141883865 0.437435227205 0.43610848337 Biso 1.0 C
C 1.0 0.68172309922 0.451160210525 0.344323480476 Biso 1.0 C
C 1.0 0.682819791333 0.345805352766 0.452199952286 Biso 1.0 C
C 1.0 0.799040116456 0.432097860266 0.401518989669 Biso 1.0 C
C 1.0 0.798713345152 0.403008129628 0.429885465124 Biso 1.0 C
C 1.0 0.654125387912 0.317142477005 0.45272593371 Biso 1.0 C
C 1.0 0.652803894498 0.451468369573 0.315682479015 Biso 1.0 C
C 1.0 0.708995875018 0.452194770271 0.449998486944 Biso 1.0 C
Zn 1.0 0.7502517256 0.498006303876 0.37200295579 Biso 1.0 Zn
Zn 1.0 0.751841856846 0.374247479845 0.497578986355 Biso 1.0 Zn
H 1.0 0.688987836113 0.42902121545 0.365823981392 Biso 1.0 H
H 1.0 0.688692217675 0.368302852592 0.43069296364 Biso 1.0 H
H 1.0 0.820304060867 0.438368095299 0.378850977218 Biso 1.0 H
H 1.0 0.819900019332 0.380401241815 0.436095983307 Biso 1.0 H
H 1.0 0.631079499614 0.311056620608 0.431828455996 Biso 1.0 H
H 1.0 0.630932914258 0.429660622552 0.308795978644 Biso 1.0 H
H 1.0 0.698615851609 0.478856320975 0.434398966841 Biso 1.0 H
O 1.0 0.689771275042 0.43724209642 0.476569986821 Biso 1.0 O
N 1.0 0.702457889964 0.484712426479 0.341222961341 Biso 1.0 N
N 1.0 0.704810932626 0.341996750331 0.48501247945 Biso 1.0 N
N 1.0 0.766027425253 0.453641403484 0.405617472495 Biso 1.0 N
N 1.0 0.765534598052 0.40648609527 0.451204952815 Biso 1.0 N
N 1.0 0.658403399489 0.295715017865 0.485920481834 Biso 1.0 N
N 1.0 0.655720303348 0.485198545917 0.294933464025 Biso 1.0 N
C 1.0 0.812862809614 0.495457510975 0.310485500665 Biso 1.0 C
C 1.0 0.799331507005 0.45806135057 0.296057994357 Biso 1.0 C
H 1.0 0.815496895623 0.446800667169 0.270055485071 Biso 1.0 H
O 1.0 0.772203870181 0.439647131778 0.310884971378 Biso 1.0 O
C 1.0 0.688938102789 0.187167167259 0.494341497843 Biso 1.0 C
C 1.0 0.702276090744 0.201781035643 0.456818488094 Biso 1.0 C
H 1.0 0.68703076862 0.228650929204 0.446616982039 Biso 1.0 H
O 1.0 0.728117114238 0.186250983821 0.437038437767 Biso 1.0 O
C 1.0 0.813421836653 0.31087071382 0.494619463464 Biso 1.0 C
C 1.0 0.800286676103 0.296316582335 0.456994467737 Biso 1.0 C
H 1.0 0.815626513794 0.269467985674 0.446862956445 Biso 1.0 H
O 1.0 0.774573880027 0.311845481097 0.437072973737 Biso 1.0 O
C 1.0 0.686060523761 0.495071082697 0.18572348431 Biso 1.0 C
C 1.0 0.699613188335 0.457798841627 0.200417001481 Biso 1.0 C
H 1.0 0.683850450499 0.447120134551 0.226945492191 Biso 1.0 H
O 1.0 0.726233311608 0.438848491109 0.185362995899 Biso 1.0 O
C 1.0 0.936288458666 0.438553724241 0.24491648689 Biso 1.0 C
C 1.0 0.93052862768 0.405745552209 0.298939972111 Biso 1.0 C
C 1.0 0.951624012838 0.318358386864 0.155645478892 Biso 1.0 C
C 1.0 0.951613331856 0.347574092899 0.183948992618 Biso 1.0 C
C 1.0 0.901890911347 0.434441825064 0.298018490911 Biso 1.0 C
C 1.0 0.950900265025 0.451151541729 0.207079982816 Biso 1.0 C
H 1.0 0.936788128371 0.383975731173 0.321080465098 Biso 1.0 H
H 1.0 0.929869967102 0.311166730996 0.133676001875 Biso 1.0 H
H 1.0 0.929576796389 0.369281315221 0.190560477606 Biso 1.0 H
H 1.0 0.879637307166 0.441514340549 0.319492957019 Biso 1.0 H
H 1.0 0.97757423825 0.435466965829 0.196955979952 Biso 1.0 H
O 1.0 0.935582512489 0.476874889696 0.18708551585 Biso 1.0 O
N 1.0 0.951965581753 0.408596030345 0.265642990579 Biso 1.0 N
N 1.0 0.985137597608 0.297489314919 0.15936497489 Biso 1.0 N
N 1.0 0.985098211486 0.344766041853 0.205049491499 Biso 1.0 N
N 1.0 0.905577964198 0.454845643809 0.264023491286 Biso 1.0 N
C 1.0 0.938633156809 0.244286937615 0.438850471597 Biso 1.0 C
C 1.0 0.933653260054 0.297906917523 0.40557499465 Biso 1.0 C
C 1.0 0.904167184447 0.296829597271 0.433638476393 Biso 1.0 C
C 1.0 0.953672313722 0.207210980884 0.452690474916 Biso 1.0 C
H 1.0 0.940538154513 0.320148382219 0.384046976815 Biso 1.0 H
H 1.0 0.881948070939 0.318263363517 0.44051846107 Biso 1.0 H
H 1.0 0.98064390807 0.197130073464 0.437432511361 Biso 1.0 H
O 1.0 0.938568403354 0.187915740071 0.479099977325 Biso 1.0 O
N 1.0 0.907386721801 0.263123343471 0.454183966857 Biso 1.0 N
C 1.0 0.562091034692 0.437680037355 0.255949009479 Biso 1.0 C
C 1.0 0.566246715644 0.403977840107 0.202445982723 Biso 1.0 C
C 1.0 0.595164140201 0.432449252159 0.202085494312 Biso 1.0 C
C 1.0 0.548932732013 0.452141229338 0.293677976652 Biso 1.0 C
H 1.0 0.559137409295 0.382120775413 0.180584504019 Biso 1.0 H
H 1.0 0.616643595683 0.439197076756 0.179737491879 Biso 1.0 H
H 1.0 0.564880885027 0.478377981226 0.304425486604 Biso 1.0 H
O 1.0 0.522404009021 0.437153157901 0.312856457921 Biso 1.0 O
N 1.0 0.592385248999 0.4534453831 0.23571797811 Biso 1.0 N
C 1.0 0.995355069817 0.187665914801 0.18902649329 Biso 1.0 C
C 1.0 0.95773575994 0.202101781117 0.202058480751 Biso 1.0 C
H 1.0 0.947131880943 0.228314638245 0.185906496987 Biso 1.0 H
O 1.0 0.938463262434 0.187161582554 0.228596982698 Biso 1.0 O
Zn 1.0 0.626086696672 0.249833161426 0.502542490362 Biso 1.0 Zn
C 1.0 0.50439142239 0.187930021358 0.814273998487 Biso 1.0 C
C 1.0 0.541776585107 0.201286275192 0.799626944081 Biso 1.0 C
H 1.0 0.552518538053 0.185395481959 0.773214002057 Biso 1.0 H
O 1.0 0.560788844929 0.227875113587 0.814656998199 Biso 1.0 O
C 1.0 0.563609013677 0.254828138684 0.93954594473 Biso 1.0 C
C 1.0 0.568517703883 0.201537420232 0.905618479005 Biso 1.0 C
C 1.0 0.548723117735 0.318135748829 0.848374955027 Biso 1.0 C
C 1.0 0.548529191149 0.34681335043 0.819551486194 Biso 1.0 C
C 1.0 0.59791315803 0.202225630991 0.933724438593 Biso 1.0 C
C 1.0 0.548696025868 0.292009107328 0.953161002832 Biso 1.0 C
Zn 1.0 0.501998548565 0.24990342869 0.876341931805 Biso 1.0 Zn
H 1.0 0.561935826668 0.179960229858 0.883358466394 Biso 1.0 H
H 1.0 0.570697347472 0.311211325286 0.870170479816 Biso 1.0 H
H 1.0 0.569910904517 0.369156645701 0.813017504396 Biso 1.0 H
H 1.0 0.620153188463 0.180719819266 0.940343935368 Biso 1.0 H
H 1.0 0.521749075662 0.301967137335 0.937719984654 Biso 1.0 H
O 1.0 0.563771676137 0.311635818472 0.979329480524 Biso 1.0 O
N 1.0 0.546990795912 0.234544932908 0.90954651913 Biso 1.0 N
N 1.0 0.515221159659 0.297266954729 0.845199994797 Biso 1.0 N
N 1.0 0.515012546723 0.343490506234 0.798574533803 Biso 1.0 N
N 1.0 0.594778734755 0.235727473456 0.954630473397 Biso 1.0 N
N 1.0 0.514898171204 0.157334615222 0.705395536119 Biso 1.0 N
N 1.0 0.545755751699 0.094422914852 0.765057976211 Biso 1.0 N
Zn 1.0 0.502232918246 0.251342309999 0.6280299858 Biso 1.0 Zn
C 1.0 0.504896710737 0.314129097734 0.68959551164 Biso 1.0 C
C 1.0 0.542250442438 0.300624307404 0.704284512568 Biso 1.0 C
H 1.0 0.553273494361 0.316768524015 0.730406457585 Biso 1.0 H
O 1.0 0.560829176763 0.273566075902 0.689591988132 Biso 1.0 O
N 1.0 0.545595203183 0.407386038607 0.73632796423 Biso 1.0 N
C 1.0 0.811119361768 0.00435298011122 0.685271999704 Biso 1.0 C
C 1.0 0.796995487159 0.0419293714306 0.698534483305 Biso 1.0 C
H 1.0 0.770883600629 0.0529092601457 0.682444021106 Biso 1.0 H
O 1.0 0.812130439133 0.0608592169108 0.725236017402 Biso 1.0 O
C 1.0 0.813029588703 0.186417983186 0.505770526924 Biso 1.0 C
C 1.0 0.798382791001 0.199581606358 0.543351534731 Biso 1.0 C
H 1.0 0.771378041103 0.184427674725 0.553390008636 Biso 1.0 H
O 1.0 0.814035381207 0.225155723215 0.56333547312 Biso 1.0 O
C 1.0 0.74415527678 0.0614801541965 0.56105498053 Biso 1.0 C
C 1.0 0.79721572679 0.0659824479035 0.595387985231 Biso 1.0 C
C 1.0 0.797184073254 0.095129650996 0.566979003966 Biso 1.0 C
C 1.0 0.707031241829 0.0468444957363 0.546812010955 Biso 1.0 C
H 1.0 0.818916033834 0.05901810483 0.617458511419 Biso 1.0 H
H 1.0 0.819093605165 0.116960945469 0.56036001055 Biso 1.0 H
H 1.0 0.69636883995 0.0202294668787 0.562280993481 Biso 1.0 H
O 1.0 0.68827376794 0.0618541210796 0.519967523111 Biso 1.0 O
N 1.0 0.763842051763 0.0448624288842 0.591470459701 Biso 1.0 N
N 1.0 0.763831037 0.0921997088913 0.545746960792 Biso 1.0 N
Zn 1.0 0.874192008858 0.00135864751131 0.746414033455 Biso 1.0 Zn
N 1.0 0.704510251847 0.156057940433 0.513533485893 Biso 1.0 N
Zn 1.0 0.876474178751 0.248204150069 0.502684493322 Biso 1.0 Zn
N 1.0 0.702009177446 0.0147007438961 0.655126991708 Biso 1.0 N
C 1.0 0.686028814595 0.00482469323268 0.811059496669 Biso 1.0 C
C 1.0 0.700366531371 0.0423232668213 0.797701990213 Biso 1.0 C
H 1.0 0.726810696586 0.052977815184 0.813463983179 Biso 1.0 H
O 1.0 0.685105799704 0.0614119777234 0.771209461655 Biso 1.0 O
C 1.0 0.93694077741 0.0626464824283 0.753577996088 Biso 1.0 C
C 1.0 0.932050890183 0.0974594386993 0.700787962335 Biso 1.0 C
C 1.0 0.817075233284 0.0488296779371 0.844162461553 Biso 1.0 C
C 1.0 0.951426080884 0.183009326239 0.848638994402 Biso 1.0 C
C 1.0 0.951336627657 0.154042528583 0.820105963289 Biso 1.0 C
C 1.0 0.846232868684 0.0487034073293 0.815745985843 Biso 1.0 C
C 1.0 0.903226868591 0.0689657989642 0.700153954634 Biso 1.0 C
C 1.0 0.949976805093 0.0480116158293 0.791211017583 Biso 1.0 C
Zn 1.0 0.997665054768 0.125476579415 0.752018424393 Biso 1.0 Zn
H 1.0 0.938509546691 0.120259061367 0.679763023123 Biso 1.0 H
H 1.0 0.809980557656 0.0706443085938 0.866077505966 Biso 1.0 H
H 1.0 0.929884486562 0.189781531827 0.87093647924 Biso 1.0 H
H 1.0 0.929823627215 0.131770389684 0.813834510791 Biso 1.0 H
H 1.0 0.867947472668 0.0706586454497 0.808899977849 Biso 1.0 H
H 1.0 0.880969203411 0.0630287013389 0.678396013929 Biso 1.0 H
H 1.0 0.934122221935 0.0216087988341 0.801681988096 Biso 1.0 H
O 1.0 0.976222092642 0.0630676206236 0.810785949416 Biso 1.0 O
N 1.0 0.953017102212 0.0933315425367 0.734323479756 Biso 1.0 N
N 1.0 0.796165040783 0.015339280992 0.840664960533 Biso 1.0 N
N 1.0 0.98481349655 0.204093367669 0.84486699534 Biso 1.0 N
N 1.0 0.984531896902 0.157398033581 0.798756973211 Biso 1.0 N
N 1.0 0.843312343206 0.0151640382824 0.794841013685 Biso 1.0 N
N 1.0 0.906516722411 0.0473497726598 0.733266930755 Biso 1.0 N
C 1.0 0.560761697432 0.0633704172425 0.745512015442 Biso 1.0 C
C 1.0 0.680730268533 0.0479467630895 0.651333460098 Biso 1.0 C
C 1.0 0.5675501849 0.0981503792957 0.798085996642 Biso 1.0 C
C 1.0 0.595842048799 0.0690878706237 0.798041980758 Biso 1.0 C
C 1.0 0.651723001338 0.0478920760419 0.679848034741 Biso 1.0 C
C 1.0 0.54581377391 0.0492849008958 0.70835847066 Biso 1.0 C
Zn 1.0 0.623285108383 0.00197911994748 0.748267454521 Biso 1.0 Zn
H 1.0 0.687401710236 0.0694825509294 0.629019979653 Biso 1.0 H
H 1.0 0.561588583482 0.120503940978 0.819755961508 Biso 1.0 H
H 1.0 0.618686444816 0.0629352686604 0.819131965044 Biso 1.0 H
H 1.0 0.629290768853 0.0692501743903 0.686074520567 Biso 1.0 H
H 1.0 0.519490548568 0.0649455889821 0.69740947758 Biso 1.0 H
O 1.0 0.560605654956 0.0222311079846 0.689739975462 Biso 1.0 O
N 1.0 0.591365270816 0.0473774218143 0.765061499718 Biso 1.0 N
N 1.0 0.655230980844 0.0147595673767 0.701241488133 Biso 1.0 N
C 1.0 0.755172932582 0.0606939679761 0.935013483185 Biso 1.0 C
C 1.0 0.819451584964 0.152602966551 0.952598472005 Biso 1.0 C
C 1.0 0.702067032767 0.0663297276741 0.900919965161 Biso 1.0 C
C 1.0 0.703004010817 0.0957269366372 0.929000029763 Biso 1.0 C
C 1.0 0.848199727078 0.181199131477 0.953250488746 Biso 1.0 C
C 1.0 0.792145152946 0.0456996067998 0.949178879658 Biso 1.0 C
Zn 1.0 0.750329830283 0.123548883561 0.997161003038 Biso 1.0 Zn
H 1.0 0.813425675131 0.130330410883 0.930900486862 Biso 1.0 H
H 1.0 0.680094694454 0.0597836054124 0.878986967637 Biso 1.0 H
H 1.0 0.682098602505 0.118594999732 0.935216504352 Biso 1.0 H
H 1.0 0.871138416141 0.187450764716 0.932284945809 Biso 1.0 H
H 1.0 0.802408742521 0.0187727252788 0.934026453553 Biso 1.0 H
O 1.0 0.811234460479 0.0608579040883 0.975737515936 Biso 1.0 O
N 1.0 0.797589950583 0.156132903296 0.98554740926 Biso 1.0 N
N 1.0 0.734910385895 0.0443822136738 0.904812993922 Biso 1.0 N
N 1.0 0.736306034254 0.0920118224501 0.950077430092 Biso 1.0 N
N 1.0 0.844154360647 0.202344215682 0.986667996618 Biso 1.0 N
C 1.0 0.995273627327 0.313157136702 0.814721987344 Biso 1.0 C
C 1.0 0.957683467631 0.299082706413 0.801350946143 Biso 1.0 C
H 1.0 0.946782746333 0.272737733491 0.817062491425 Biso 1.0 H
O 1.0 0.938691679692 0.314527417823 0.774861493663 Biso 1.0 O
Zn 1.0 0.998467241046 0.376220909158 0.753361440176 Biso 1.0 Zn
N 1.0 0.955289258684 0.264841821254 0.909046460656 Biso 1.0 N
C 1.0 0.6893114365 0.311285760241 0.505038028789 Biso 1.0 C
C 1.0 0.70414381627 0.297895359127 0.54245801788 Biso 1.0 C
H 1.0 0.730949076571 0.313283973421 0.552647499265 Biso 1.0 H
O 1.0 0.688846925029 0.271897443699 0.562180545542 Biso 1.0 O
C 1.0 0.562994579042 0.245636935975 0.564207513352 Biso 1.0 C
C 1.0 0.683261494457 0.152128516646 0.546908487956 Biso 1.0 C
C 1.0 0.569049416535 0.298742150516 0.598246500896 Biso 1.0 C
C 1.0 0.549144794017 0.182842952028 0.655905015801 Biso 1.0 C
C 1.0 0.548700698798 0.154145345512 0.68475952506 Biso 1.0 C
C 1.0 0.598439808342 0.297519488999 0.570191995709 Biso 1.0 C
C 1.0 0.654724190485 0.180942665686 0.547463468409 Biso 1.0 C
C 1.0 0.547861073452 0.208584957357 0.550584960804 Biso 1.0 C
H 1.0 0.689399443344 0.129234905608 0.567930518876 Biso 1.0 H
H 1.0 0.562997749959 0.320332399654 0.620640518664 Biso 1.0 H
H 1.0 0.571360124678 0.18985842572 0.634380968904 Biso 1.0 H
H 1.0 0.570413244467 0.132256147923 0.691882491958 Biso 1.0 H
H 1.0 0.62153359417 0.318171868814 0.563949514276 Biso 1.0 H
H 1.0 0.632399324124 0.187113695788 0.569087963245 Biso 1.0 H
H 1.0 0.5208255601 0.198725868326 0.565899020841 Biso 1.0 H
O 1.0 0.5629889604 0.188884255812 0.524468496799 Biso 1.0 O
N 1.0 0.546851887511 0.266169147376 0.594293460645 Biso 1.0 N
N 1.0 0.515602615367 0.203670680482 0.658810959002 Biso 1.0 N
N 1.0 0.594508761801 0.264212611103 0.549218454969 Biso 1.0 N
N 1.0 0.658414358622 0.202681687488 0.514483490728 Biso 1.0 N
C 1.0 0.939451475821 0.254938582487 0.564798008527 Biso 1.0 C
C 1.0 0.934385129865 0.202354065325 0.599712951312 Biso 1.0 C
C 1.0 0.818652013302 0.345639589816 0.547229015314 Biso 1.0 C
C 1.0 0.847219135017 0.31686124124 0.547851501703 Biso 1.0 C
C 1.0 0.90519183556 0.202350786741 0.571369015122 Biso 1.0 C
C 1.0 0.954136713933 0.291850346099 0.550220026061 Biso 1.0 C
H 1.0 0.941092675513 0.180879761341 0.622060995692 Biso 1.0 H
H 1.0 0.812391455638 0.368547468249 0.568203059413 Biso 1.0 H
H 1.0 0.869487091768 0.310742293378 0.569554967859 Biso 1.0 H
H 1.0 0.882625145085 0.181064737345 0.565366523724 Biso 1.0 H
H 1.0 0.980818252855 0.302613768434 0.565531513378 Biso 1.0 H
O 1.0 0.939047712436 0.310384455458 0.523249978294 Biso 1.0 O
N 1.0 0.955823975362 0.235473938941 0.595479484578 Biso 1.0 N
N 1.0 0.797528368044 0.341679505718 0.513784549811 Biso 1.0 N
N 1.0 0.843688291532 0.295111786319 0.514848984758 Biso 1.0 N
N 1.0 0.908552339629 0.23532126254 0.54976146668 Biso 1.0 N
C 1.0 0.754884434799 0.436397027677 0.560731992309 Biso 1.0 C
C 1.0 0.816309373472 0.450946824763 0.651650463948 Biso 1.0 C
C 1.0 0.700716667323 0.431448367354 0.593295972347 Biso 1.0 C
C 1.0 0.702375724283 0.401752765632 0.565585037141 Biso 1.0 C
C 1.0 0.844864868493 0.451069743853 0.680634951497 Biso 1.0 C
C 1.0 0.792285007058 0.451356203125 0.547720013338 Biso 1.0 C
Zn 1.0 0.748211602343 0.498040145524 0.623609493505 Biso 1.0 Zn
H 1.0 0.809436050078 0.428999265613 0.629836482689 Biso 1.0 H
H 1.0 0.678504451948 0.438099445959 0.614917502962 Biso 1.0 H
H 1.0 0.68114955272 0.379360013765 0.558629017401 Biso 1.0 H
H 1.0 0.867134049107 0.429664484612 0.687353945422 Biso 1.0 H
H 1.0 0.801854889082 0.47847811694 0.563030493939 Biso 1.0 H
O 1.0 0.812469782842 0.436078143772 0.522083473476 Biso 1.0 O
N 1.0 0.795486965295 0.484462087193 0.654715971719 Biso 1.0 N
N 1.0 0.733669945561 0.453191542954 0.589972968859 Biso 1.0 N
N 1.0 0.736429700003 0.404910152508 0.54555098664 Biso 1.0 N
N 1.0 0.841476938778 0.484555610171 0.701569509936 Biso 1.0 N
C 1.0 0.746141883865 0.437435227205 0.9361084552 Biso 1.0 C
C 1.0 0.68172309922 0.451160210525 0.84432348027 Biso 1.0 C
C 1.0 0.682819791333 0.345805352766 0.952200035973 Biso 1.0 C
C 1.0 0.799040116456 0.432097860266 0.901519017427 Biso 1.0 C
C 1.0 0.798713345152 0.403008129628 0.929885436954 Biso 1.0 C
C 1.0 0.654125387912 0.317142477005 0.952725989432 Biso 1.0 C
C 1.0 0.652803894498 0.451468369573 0.815682450844 Biso 1.0 C
C 1.0 0.708995875018 0.452194770271 0.949998458773 Biso 1.0 C
Zn 1.0 0.7502517256 0.498006303876 0.872002983549 Biso 1.0 Zn
Zn 1.0 0.751841856846 0.374247479845 0.997579014113 Biso 1.0 Zn
H 1.0 0.688987836113 0.42902121545 0.865823981186 Biso 1.0 H
H 1.0 0.688692217675 0.368302852592 0.930692991399 Biso 1.0 H
H 1.0 0.820304060867 0.438368095299 0.878851004976 Biso 1.0 H
H 1.0 0.819900019332 0.380401241815 0.93609603903 Biso 1.0 H
H 1.0 0.631079499614 0.311056620608 0.93182845579 Biso 1.0 H
H 1.0 0.630932914258 0.429660622552 0.808796006403 Biso 1.0 H
H 1.0 0.698615851609 0.478856320975 0.93439893867 Biso 1.0 H
O 1.0 0.689771275042 0.43724209642 0.976569958651 Biso 1.0 O
N 1.0 0.702457889964 0.484712426479 0.841222961135 Biso 1.0 N
N 1.0 0.704810932626 0.341996750331 0.985012507209 Biso 1.0 N
N 1.0 0.766027425253 0.453641403484 0.905617472289 Biso 1.0 N
N 1.0 0.765534598052 0.40648609527 0.951204952609 Biso 1.0 N
N 1.0 0.658403399489 0.295715017865 0.985920453664 Biso 1.0 N
N 1.0 0.655720303348 0.485198545917 0.79493346382 Biso 1.0 N
C 1.0 0.812862809614 0.495457510975 0.810485500459 Biso 1.0 C
C 1.0 0.799331507005 0.45806135057 0.796058022115 Biso 1.0 C
H 1.0 0.815496895623 0.446800667169 0.770055484865 Biso 1.0 H
O 1.0 0.772203870181 0.439647131778 0.810884943208 Biso 1.0 O
C 1.0 0.688938102789 0.187167167259 0.994341525602 Biso 1.0 C
C 1.0 0.702276090744 0.201781035643 0.956818515853 Biso 1.0 C
H 1.0 0.68703076862 0.228650929204 0.946617009798 Biso 1.0 H
O 1.0 0.728117114238 0.186250983821 0.93703849349 Biso 1.0 O
C 1.0 0.813421836653 0.31087071382 0.994619491222 Biso 1.0 C
C 1.0 0.800286676103 0.296316582335 0.956994467531 Biso 1.0 C
H 1.0 0.815626513794 0.269467985674 0.946862984204 Biso 1.0 H
O 1.0 0.774573880027 0.311845481097 0.937073001496 Biso 1.0 O
C 1.0 0.686060523761 0.495071082697 0.68572345614 Biso 1.0 C
C 1.0 0.699613188335 0.457798841627 0.700416987293 Biso 1.0 C
H 1.0 0.683850450499 0.447120134551 0.726945533931 Biso 1.0 H
O 1.0 0.726233311608 0.438848491109 0.685362995693 Biso 1.0 O
C 1.0 0.936288458666 0.438553724241 0.744916486684 Biso 1.0 C
C 1.0 0.93052862768 0.405745552209 0.798939915976 Biso 1.0 C
C 1.0 0.951624012838 0.318358386864 0.655645506651 Biso 1.0 C
C 1.0 0.951613331856 0.347574092899 0.683949006394 Biso 1.0 C
C 1.0 0.901890911347 0.434441825064 0.798018490705 Biso 1.0 C
C 1.0 0.950900265025 0.451151541729 0.707079996593 Biso 1.0 C
H 1.0 0.936788128371 0.383975731173 0.821080464893 Biso 1.0 H
H 1.0 0.929869967102 0.311166730996 0.633675987687 Biso 1.0 H
H 1.0 0.929576796389 0.369281315221 0.690560449436 Biso 1.0 H
H 1.0 0.879637307166 0.441514340549 0.819492928849 Biso 1.0 H
H 1.0 0.97757423825 0.435466965829 0.696955951782 Biso 1.0 H
O 1.0 0.935582512489 0.476874889696 0.68708548768 Biso 1.0 O
N 1.0 0.951965581753 0.408596030345 0.765642990373 Biso 1.0 N
N 1.0 0.985137597608 0.297489314919 0.659364988667 Biso 1.0 N
N 1.0 0.985098211486 0.344766041853 0.705049505275 Biso 1.0 N
N 1.0 0.905577964198 0.454845643809 0.764023463116 Biso 1.0 N
C 1.0 0.938633156809 0.244286937615 0.938850415463 Biso 1.0 C
C 1.0 0.933653260054 0.297906917523 0.90557496648 Biso 1.0 C
C 1.0 0.904167184447 0.296829597271 0.933638476187 Biso 1.0 C
C 1.0 0.953672313722 0.207210980884 0.952690530639 Biso 1.0 C
H 1.0 0.940538154513 0.320148382219 0.884046948645 Biso 1.0 H
H 1.0 0.881948070939 0.318263363517 0.9405184329 Biso 1.0 H
H 1.0 0.98064390807 0.197130073464 0.937432455227 Biso 1.0 H
O 1.0 0.938568403354 0.187915740071 0.979099949155 Biso 1.0 O
N 1.0 0.907386721801 0.263123343471 0.954184050544 Biso 1.0 N
C 1.0 0.562091034692 0.437680037355 0.755949037237 Biso 1.0 C
C 1.0 0.566246715644 0.403977840107 0.702445968535 Biso 1.0 C
C 1.0 0.595164140201 0.432449252159 0.702085508088 Biso 1.0 C
C 1.0 0.548932732013 0.452141229338 0.793677976446 Biso 1.0 C
H 1.0 0.559137409295 0.382120775413 0.680584503813 Biso 1.0 H
H 1.0 0.616643595683 0.439197076756 0.679737519637 Biso 1.0 H
H 1.0 0.564880885027 0.478377981226 0.804425458434 Biso 1.0 H
O 1.0 0.522404009021 0.437153157901 0.812856429751 Biso 1.0 O
N 1.0 0.592385248999 0.4534453831 0.73571794994 Biso 1.0 N
C 1.0 0.995355069817 0.187665914801 0.689026493084 Biso 1.0 C
C 1.0 0.95773575994 0.202101781117 0.702058494528 Biso 1.0 C
H 1.0 0.947131880943 0.228314638245 0.685906454834 Biso 1.0 H
O 1.0 0.938463262434 0.187161582554 0.728596996475 Biso 1.0 O
Zn 1.0 0.626086696672 0.749833177376 0.00254248729049 Biso 1.0 Zn
C 1.0 0.50439142239 0.687930023416 0.314274026657 Biso 1.0 C
C 1.0 0.541776585107 0.701286249466 0.299626972251 Biso 1.0 C
H 1.0 0.552518538053 0.685395456232 0.273214002263 Biso 1.0 H
O 1.0 0.560788844929 0.727875115646 0.31465697044 Biso 1.0 O
C 1.0 0.563609013677 0.754828071281 0.4395459729 Biso 1.0 C
C 1.0 0.568517703883 0.70153742229 0.405618479211 Biso 1.0 C
C 1.0 0.548723117735 0.818135736995 0.348374983197 Biso 1.0 C
C 1.0 0.548529191149 0.846813338596 0.319551458436 Biso 1.0 C
C 1.0 0.59791315803 0.702225646941 0.433724466764 Biso 1.0 C
C 1.0 0.548696025868 0.792009095494 0.453160975073 Biso 1.0 C
Zn 1.0 0.501998548565 0.749903416856 0.376341959975 Biso 1.0 Zn
H 1.0 0.561935826668 0.679960231917 0.383358494564 Biso 1.0 H
H 1.0 0.570697347472 0.811211369021 0.370170480022 Biso 1.0 H
H 1.0 0.569910904517 0.869156661651 0.313017476638 Biso 1.0 H
H 1.0 0.620153188463 0.680719807432 0.440343963538 Biso 1.0 H
H 1.0 0.521749075662 0.801967153286 0.43771998486 Biso 1.0 H
O 1.0 0.563771676137 0.811635806638 0.479329452766 Biso 1.0 O
N 1.0 0.546990795912 0.734544921074 0.409546491371 Biso 1.0 N
N 1.0 0.515221159659 0.797266942895 0.345199995003 Biso 1.0 N
N 1.0 0.515012546723 0.843490466615 0.298574478081 Biso 1.0 N
N 1.0 0.594778734755 0.735727489407 0.454630473603 Biso 1.0 N
N 1.0 0.514898171204 0.65733461728 0.20539550836 Biso 1.0 N
N 1.0 0.545755751699 0.594422937749 0.265058004381 Biso 1.0 N
Zn 1.0 0.502232918246 0.751342270381 0.128029986006 Biso 1.0 Zn
C 1.0 0.504896710737 0.81412903033 0.189595483881 Biso 1.0 C
C 1.0 0.542250442438 0.800624323354 0.204284498791 Biso 1.0 C
H 1.0 0.553273494361 0.816768512181 0.230406499737 Biso 1.0 H
O 1.0 0.560829176763 0.773566064068 0.189591974355 Biso 1.0 O
N 1.0 0.545595203183 0.907386054558 0.236327964435 Biso 1.0 N
C 1.0 0.811119361768 0.504352974355 0.185271971946 Biso 1.0 C
C 1.0 0.796995487159 0.541929373489 0.198534483511 Biso 1.0 C
H 1.0 0.770883600629 0.552909237892 0.18244400733 Biso 1.0 H
O 1.0 0.812130439133 0.560859191185 0.225235975661 Biso 1.0 O
C 1.0 0.813029588703 0.686417985244 0.00577051096261 Biso 1.0 C
C 1.0 0.798382791001 0.699581608416 0.0433515069725 Biso 1.0 C
H 1.0 0.771378041103 0.684427662891 0.0533899983555 Biso 1.0 H
O 1.0 0.814035381207 0.725155725273 0.0633354873078 Biso 1.0 O
C 1.0 0.74415527678 0.561480177093 0.0610549947178 Biso 1.0 C
C 1.0 0.79721572679 0.565982449962 0.0953879994187 Biso 1.0 C
C 1.0 0.797184073254 0.595129666947 0.0669789831988 Biso 1.0 C
C 1.0 0.707031241829 0.54684447001 0.0468120006738 Biso 1.0 C
H 1.0 0.818916033834 0.559018072158 0.117458497643 Biso 1.0 H
H 1.0 0.819093605165 0.616960919743 0.0603599897827 Biso 1.0 H
H 1.0 0.69636883995 0.520229486302 0.0622810076685 Biso 1.0 H
O 1.0 0.68827376794 0.561854102299 0.0199674988476 Biso 1.0 O
N 1.0 0.763842051763 0.544862427469 0.0914704808803 Biso 1.0 N
N 1.0 0.763831037 0.592199669273 0.0457469994486 Biso 1.0 N
Zn 1.0 0.874192008858 0.501358627537 0.246413977733 Biso 1.0 Zn
N 1.0 0.704510251847 0.656057970276 0.0135335018288 Biso 1.0 N
Zn 1.0 0.876474178751 0.74820416602 0.00268449724137 Biso 1.0 Zn
N 1.0 0.702009177446 0.514700794577 0.155126991914 Biso 1.0 N
C 1.0 0.686028814595 0.504824701369 0.311059496875 Biso 1.0 C
C 1.0 0.700366531371 0.54232330361 0.297701990419 Biso 1.0 C
H 1.0 0.726810696586 0.552977810296 0.313463983385 Biso 1.0 H
O 1.0 0.685105799704 0.561411993674 0.271209489825 Biso 1.0 O
C 1.0 0.93694077741 0.562646519217 0.253577996294 Biso 1.0 C
C 1.0 0.932050890183 0.597459461596 0.200787990505 Biso 1.0 C
C 1.0 0.817075233284 0.548829679995 0.344162489723 Biso 1.0 C
C 1.0 0.951426080884 0.683009314405 0.348638994608 Biso 1.0 C
C 1.0 0.951336627657 0.654042530641 0.320105991459 Biso 1.0 C
C 1.0 0.846232868684 0.548703426753 0.315745986049 Biso 1.0 C
C 1.0 0.903226868591 0.568965794076 0.20015395484 Biso 1.0 C
C 1.0 0.949976805093 0.548011590103 0.291210989824 Biso 1.0 C
Zn 1.0 0.997665054768 0.62547662315 0.252018480527 Biso 1.0 Zn
H 1.0 0.938509546691 0.620259063425 0.179762995364 Biso 1.0 H
H 1.0 0.809980557656 0.570644317598 0.366077478208 Biso 1.0 H
H 1.0 0.929884486562 0.689781533885 0.370936479446 Biso 1.0 H
H 1.0 0.929823627215 0.631770391742 0.313834483033 Biso 1.0 H
H 1.0 0.867947472668 0.570658598885 0.308899978055 Biso 1.0 H
H 1.0 0.880969203411 0.563028668666 0.178396000152 Biso 1.0 H
H 1.0 0.934122221935 0.521608825204 0.301681988302 Biso 1.0 H
O 1.0 0.976222092642 0.563067622682 0.310785977586 Biso 1.0 O
N 1.0 0.953017102212 0.593331502918 0.234323479962 Biso 1.0 N
N 1.0 0.796165040783 0.515339229218 0.340664988703 Biso 1.0 N
N 1.0 0.98481349655 0.704093383619 0.344866967581 Biso 1.0 N
N 1.0 0.984531896902 0.657398021747 0.298756973416 Biso 1.0 N
N 1.0 0.843312343206 0.515164019502 0.294840985926 Biso 1.0 N
N 1.0 0.906516722411 0.547349760826 0.233266972907 Biso 1.0 N
C 1.0 0.560761697432 0.563370419301 0.245511987684 Biso 1.0 C
C 1.0 0.680730268533 0.547946740836 0.151333474286 Biso 1.0 C
C 1.0 0.5675501849 0.598150353569 0.298085996847 Biso 1.0 C
C 1.0 0.595842048799 0.569087879628 0.298041980963 Biso 1.0 C
C 1.0 0.651723001338 0.547892116304 0.179848006982 Biso 1.0 C
C 1.0 0.54581377391 0.549284902954 0.208358470866 Biso 1.0 C
Zn 1.0 0.623285108383 0.501979113323 0.248267482691 Biso 1.0 Zn
H 1.0 0.687401710236 0.569482587718 0.129019993841 Biso 1.0 H
H 1.0 0.561588583482 0.620503956929 0.319755989678 Biso 1.0 H
H 1.0 0.618686444816 0.562935312396 0.319131965249 Biso 1.0 H
H 1.0 0.629290768853 0.569250141718 0.186074478826 Biso 1.0 H
H 1.0 0.519490548568 0.564945584094 0.197409477786 Biso 1.0 H
O 1.0 0.560605654956 0.522231089204 0.189740003632 Biso 1.0 O
N 1.0 0.591365270816 0.547377434292 0.26506147196 Biso 1.0 N
N 1.0 0.655230980844 0.514759531231 0.201241502321 Biso 1.0 N
C 1.0 0.755172932582 0.560693983927 0.435013455426 Biso 1.0 C
C 1.0 0.819451584964 0.652602954717 0.452598472211 Biso 1.0 C
C 1.0 0.702067032767 0.566329701948 0.400919965367 Biso 1.0 C
C 1.0 0.703004010817 0.595726924803 0.429000002005 Biso 1.0 C
C 1.0 0.848199727078 0.681199147427 0.453250488952 Biso 1.0 C
C 1.0 0.792145152946 0.5456995776 0.449178963757 Biso 1.0 C
Zn 1.0 0.750329830283 0.623548871727 0.497160975279 Biso 1.0 Zn
H 1.0 0.813425675131 0.630330371265 0.430900487068 Biso 1.0 H
H 1.0 0.680094694454 0.559783593578 0.378986967843 Biso 1.0 H
H 1.0 0.682098602505 0.618594987898 0.435216476594 Biso 1.0 H
H 1.0 0.871138416141 0.68745073899 0.432284973979 Biso 1.0 H
H 1.0 0.802408742521 0.518772739493 0.434026453759 Biso 1.0 H
O 1.0 0.811234460479 0.560857913093 0.475737488177 Biso 1.0 O
N 1.0 0.797589950583 0.65613287757 0.48554743743 Biso 1.0 N
N 1.0 0.734910385895 0.544382198367 0.404812966163 Biso 1.0 N
N 1.0 0.736306034254 0.592011789778 0.450077458263 Biso 1.0 N
N 1.0 0.844154360647 0.702344176064 0.486667968859 Biso 1.0 N
C 1.0 0.995273627327 0.813157124868 0.314722015514 Biso 1.0 C
C 1.0 0.957683467631 0.799082722363 0.301350974313 Biso 1.0 C
H 1.0 0.946782746333 0.772737749441 0.31706249163 Biso 1.0 H
O 1.0 0.938691679692 0.814527405989 0.274861493869 Biso 1.0 O
Zn 1.0 0.998467241046 0.876220897324 0.253361468346 Biso 1.0 Zn
N 1.0 0.955289258684 0.76484180942 0.409046488827 Biso 1.0 N
C 1.0 0.6893114365 0.811285720622 0.00503799928249 Biso 1.0 C
C 1.0 0.70414381627 0.797895375078 0.0424579866255 Biso 1.0 C
H 1.0 0.730949076571 0.813283989372 0.0526474924795 Biso 1.0 H
O 1.0 0.688846925029 0.771897431865 0.0621804898192 Biso 1.0 O
C 1.0 0.562994579042 0.745636924141 0.0642074855933 Biso 1.0 C
C 1.0 0.683261494457 0.652128504812 0.0469085021436 Biso 1.0 C
C 1.0 0.569049416535 0.798742194251 0.0982465011023 Biso 1.0 C
C 1.0 0.549144794017 0.682842995763 0.155904988043 Biso 1.0 C
C 1.0 0.548700698798 0.654145333678 0.184759497302 Biso 1.0 C
C 1.0 0.598439808342 0.797519504949 0.0701919959147 Biso 1.0 C
C 1.0 0.654724190485 0.680942639959 0.0474634930833 Biso 1.0 C
C 1.0 0.547861073452 0.7085849872 0.0505849889744 Biso 1.0 C
H 1.0 0.689399443344 0.629234935451 0.0679305050993 Biso 1.0 H
H 1.0 0.562997749959 0.82033238782 0.120640490906 Biso 1.0 H
H 1.0 0.571360124678 0.68985844167 0.134381011056 Biso 1.0 H
H 1.0 0.570413244467 0.632256177766 0.191882492164 Biso 1.0 H
H 1.0 0.62153359417 0.81817185698 0.0639495004997 Biso 1.0 H
H 1.0 0.632399324124 0.687113711738 0.0690879914149 Biso 1.0 H
H 1.0 0.5208255601 0.698725898169 0.065899000074 Biso 1.0 H
O 1.0 0.5629889604 0.68888425787 0.0244685109874 Biso 1.0 O
N 1.0 0.546851887511 0.766169135542 0.0942935027972 Biso 1.0 N
N 1.0 0.515602615367 0.703670668648 0.158810987172 Biso 1.0 N
N 1.0 0.594508761801 0.764212599269 0.0492184901298 Biso 1.0 N
N 1.0 0.658414358622 0.702681647869 0.0144835005463 Biso 1.0 N
C 1.0 0.939451475821 0.754938598438 0.0647979877595 Biso 1.0 C
C 1.0 0.934385129865 0.702354067383 0.0997129794825 Biso 1.0 C
C 1.0 0.818652013302 0.845639605767 0.0472290015376 Biso 1.0 C
C 1.0 0.847219135017 0.816861201621 0.047851494918 Biso 1.0 C
C 1.0 0.90519183556 0.7023507888 0.0713690083364 Biso 1.0 C
C 1.0 0.954136713933 0.791850334265 0.0502200087892 Biso 1.0 C
H 1.0 0.941092675513 0.680879791184 0.122060995898 Biso 1.0 H
H 1.0 0.812391455638 0.868547456415 0.0682030036897 Biso 1.0 H
H 1.0 0.869487091768 0.810742309329 0.0695549890376 Biso 1.0 H
H 1.0 0.882625145085 0.681064725511 0.0653664959659 Biso 1.0 H
H 1.0 0.980818252855 0.802613812169 0.0655314926109 Biso 1.0 H
O 1.0 0.939047712436 0.810384443624 0.0232500047164 Biso 1.0 O
N 1.0 0.955823975362 0.735473927107 0.0954794917747 Biso 1.0 N
N 1.0 0.797528368044 0.841679521669 0.0137845045743 Biso 1.0 N
N 1.0 0.843688291532 0.795111802269 0.0148490076846 Biso 1.0 N
N 1.0 0.908552339629 0.73532127849 0.0497614878596 Biso 1.0 N
C 1.0 0.754884434799 0.936397071412 0.060732006497 Biso 1.0 C
C 1.0 0.816309373472 0.95094675736 0.151650492118 Biso 1.0 C
C 1.0 0.700716667323 0.93144835552 0.0932960005173 Biso 1.0 C
C 1.0 0.702375724283 0.901752781582 0.0655850093822 Biso 1.0 C
C 1.0 0.844864868493 0.951069787588 0.18063499365 Biso 1.0 C
C 1.0 0.792285007058 0.951356191291 0.0477200100486 Biso 1.0 C
Zn 1.0 0.748211602343 0.998040105906 0.123609507693 Biso 1.0 Zn
H 1.0 0.809436050078 0.928999253779 0.129836482895 Biso 1.0 H
H 1.0 0.678504451948 0.938099489694 0.114917503168 Biso 1.0 H
H 1.0 0.68114955272 0.879360001931 0.0586290106157 Biso 1.0 H
H 1.0 0.867134049107 0.929664472778 0.187353973592 Biso 1.0 H
H 1.0 0.801854889082 0.97847818846 0.063030501136 Biso 1.0 H
O 1.0 0.812469782842 0.936078104153 0.0220834859164 Biso 1.0 O
N 1.0 0.795486965295 0.984462103143 0.154715971925 Biso 1.0 N
N 1.0 0.733669945561 0.95319153112 0.0899729970291 Biso 1.0 N
N 1.0 0.736429700003 0.904910168459 0.0455510078192 Biso 1.0 N
N 1.0 0.841476938778 0.984555570553 0.20156949616 Biso 1.0 N
C 1.0 0.746141883865 0.937435215371 0.43610848337 Biso 1.0 C
C 1.0 0.68172309922 0.951160143122 0.344323480476 Biso 1.0 C
C 1.0 0.682819791333 0.845805368717 0.452199952286 Biso 1.0 C
C 1.0 0.799040116456 0.932097848432 0.401518989669 Biso 1.0 C
C 1.0 0.798713345152 0.90300809001 0.429885465124 Biso 1.0 C
C 1.0 0.654125387912 0.817142492956 0.45272593371 Biso 1.0 C
C 1.0 0.652803894498 0.951468329954 0.315682479015 Biso 1.0 C
C 1.0 0.708995875018 0.952194730652 0.449998486944 Biso 1.0 C
Zn 1.0 0.7502517256 0.998006319827 0.37200295579 Biso 1.0 Zn
Zn 1.0 0.751841856846 0.874247468011 0.497578986355 Biso 1.0 Zn
H 1.0 0.688987836113 0.929021259186 0.365823981392 Biso 1.0 H
H 1.0 0.688692217675 0.868302896327 0.43069296364 Biso 1.0 H
H 1.0 0.820304060867 0.938368111249 0.378850977218 Biso 1.0 H
H 1.0 0.819900019332 0.880401257766 0.436095983307 Biso 1.0 H
H 1.0 0.631079499614 0.811056608774 0.431828455996 Biso 1.0 H
H 1.0 0.630932914258 0.929660638502 0.308795978644 Biso 1.0 H
H 1.0 0.698615851609 0.978856281357 0.434398966841 Biso 1.0 H
O 1.0 0.689771275042 0.937242056802 0.476569986821 Biso 1.0 O
N 1.0 0.702457889964 0.98471238686 0.341222961341 Biso 1.0 N
N 1.0 0.704810932626 0.841996710713 0.48501247945 Biso 1.0 N
N 1.0 0.766027425253 0.953641419435 0.405617472495 Biso 1.0 N
N 1.0 0.765534598052 0.906486111221 0.451204952815 Biso 1.0 N
N 1.0 0.658403399489 0.795714950462 0.485920481834 Biso 1.0 N
N 1.0 0.655720303348 0.985198506299 0.294933464025 Biso 1.0 N
C 1.0 0.812862809614 0.995457582495 0.310485500665 Biso 1.0 C
C 1.0 0.799331507005 0.958061283167 0.296057994357 Biso 1.0 C
H 1.0 0.815496895623 0.946800627551 0.270055485071 Biso 1.0 H
O 1.0 0.772203870181 0.93964709216 0.310884971378 Biso 1.0 O
C 1.0 0.688938102789 0.687167169317 0.494341497843 Biso 1.0 C
C 1.0 0.702276090744 0.701781037702 0.456818488094 Biso 1.0 C
H 1.0 0.68703076862 0.72865091737 0.446616982039 Biso 1.0 H
O 1.0 0.728117114238 0.686250999771 0.437038437767 Biso 1.0 O
C 1.0 0.813421836653 0.810870729771 0.494619463464 Biso 1.0 C
C 1.0 0.800286676103 0.796316542717 0.456994467737 Biso 1.0 C
H 1.0 0.815626513794 0.769468001624 0.446862956445 Biso 1.0 H
O 1.0 0.774573880027 0.811845469263 0.437072973737 Biso 1.0 O
C 1.0 0.686060523761 0.995071043078 0.18572348431 Biso 1.0 C
C 1.0 0.699613188335 0.957798885362 0.200417001481 Biso 1.0 C
H 1.0 0.683850450499 0.947120150502 0.226945492191 Biso 1.0 H
O 1.0 0.726233311608 0.93884845149 0.185362995899 Biso 1.0 O
C 1.0 0.936288458666 0.938553712407 0.24491648689 Biso 1.0 C
C 1.0 0.93052862768 0.905745540375 0.298939972111 Biso 1.0 C
C 1.0 0.951624012838 0.818358347245 0.155645478892 Biso 1.0 C
C 1.0 0.951613331856 0.847574136634 0.183948992618 Biso 1.0 C
C 1.0 0.901890911347 0.93444181323 0.298018490911 Biso 1.0 C
C 1.0 0.950900265025 0.951151585464 0.207079982816 Biso 1.0 C
H 1.0 0.936788128371 0.883975747124 0.321080465098 Biso 1.0 H
H 1.0 0.929869967102 0.811166691377 0.133676001875 Biso 1.0 H
H 1.0 0.929576796389 0.869281303387 0.190560477606 Biso 1.0 H
H 1.0 0.879637307166 0.941514328715 0.319492957019 Biso 1.0 H
H 1.0 0.97757423825 0.935466953995 0.196955979952 Biso 1.0 H
O 1.0 0.935582512489 0.976874905647 0.18708551585 Biso 1.0 O
N 1.0 0.951965581753 0.908596018511 0.265642990579 Biso 1.0 N
N 1.0 0.985137597608 0.7974892753 0.15936497489 Biso 1.0 N
N 1.0 0.985098211486 0.844766002235 0.205049491499 Biso 1.0 N
N 1.0 0.905577964198 0.954845715328 0.264023491286 Biso 1.0 N
C 1.0 0.938633156809 0.744286981351 0.438850471597 Biso 1.0 C
C 1.0 0.933653260054 0.797906933473 0.40557499465 Biso 1.0 C
C 1.0 0.904167184447 0.796829557653 0.433638476393 Biso 1.0 C
C 1.0 0.953672313722 0.707211038512 0.452690474916 Biso 1.0 C
H 1.0 0.940538154513 0.820148398169 0.384046976815 Biso 1.0 H
H 1.0 0.881948070939 0.818263379467 0.44051846107 Biso 1.0 H
H 1.0 0.98064390807 0.69713006163 0.437432511361 Biso 1.0 H
O 1.0 0.938568403354 0.687915742129 0.479099977325 Biso 1.0 O
N 1.0 0.907386721801 0.763123331637 0.454183966857 Biso 1.0 N
C 1.0 0.562091034692 0.937680053306 0.255949009479 Biso 1.0 C
C 1.0 0.566246715644 0.903977828273 0.202445982723 Biso 1.0 C
C 1.0 0.595164140201 0.932449323678 0.202085494312 Biso 1.0 C
C 1.0 0.548932732013 0.952141273073 0.293677976652 Biso 1.0 C
H 1.0 0.559137409295 0.882120791364 0.180584504019 Biso 1.0 H
H 1.0 0.616643595683 0.939197092707 0.179737491879 Biso 1.0 H
H 1.0 0.564880885027 0.978378052745 0.304425486604 Biso 1.0 H
O 1.0 0.522404009021 0.937153146067 0.312856457921 Biso 1.0 O
N 1.0 0.592385248999 0.953445371266 0.23571797811 Biso 1.0 N
C 1.0 0.995355069817 0.687665958536 0.18902649329 Biso 1.0 C
C 1.0 0.95773575994 0.702101783175 0.202058480751 Biso 1.0 C
H 1.0 0.947131880943 0.728314612518 0.185906496987 Biso 1.0 H
O 1.0 0.938463262434 0.687161556827 0.228596982698 Biso 1.0 O
Zn 1.0 0.626086696672 0.749833177376 0.502542490362 Biso 1.0 Zn
C 1.0 0.50439142239 0.687930023416 0.814273998487 Biso 1.0 C
C 1.0 0.541776585107 0.701286249466 0.799626944081 Biso 1.0 C
H 1.0 0.552518538053 0.685395456232 0.773214002057 Biso 1.0 H
O 1.0 0.560788844929 0.727875115646 0.814656998199 Biso 1.0 O
C 1.0 0.563609013677 0.754828071281 0.93954594473 Biso 1.0 C
C 1.0 0.568517703883 0.70153742229 0.905618479005 Biso 1.0 C
C 1.0 0.548723117735 0.818135736995 0.848374955027 Biso 1.0 C
C 1.0 0.548529191149 0.846813338596 0.819551486194 Biso 1.0 C
C 1.0 0.59791315803 0.702225646941 0.933724438593 Biso 1.0 C
C 1.0 0.548696025868 0.792009095494 0.953161002832 Biso 1.0 C
Zn 1.0 0.501998548565 0.749903416856 0.876341931805 Biso 1.0 Zn
H 1.0 0.561935826668 0.679960231917 0.883358466394 Biso 1.0 H
H 1.0 0.570697347472 0.811211369021 0.870170479816 Biso 1.0 H
H 1.0 0.569910904517 0.869156661651 0.813017504396 Biso 1.0 H
H 1.0 0.620153188463 0.680719807432 0.940343935368 Biso 1.0 H
H 1.0 0.521749075662 0.801967153286 0.937719984654 Biso 1.0 H
O 1.0 0.563771676137 0.811635806638 0.979329480524 Biso 1.0 O
N 1.0 0.546990795912 0.734544921074 0.90954651913 Biso 1.0 N
N 1.0 0.515221159659 0.797266942895 0.845199994797 Biso 1.0 N
N 1.0 0.515012546723 0.843490466615 0.798574533803 Biso 1.0 N
N 1.0 0.594778734755 0.735727489407 0.954630473397 Biso 1.0 N
N 1.0 0.514898171204 0.65733461728 0.705395536119 Biso 1.0 N
N 1.0 0.545755751699 0.594422937749 0.765057976211 Biso 1.0 N
Zn 1.0 0.502232918246 0.751342270381 0.6280299858 Biso 1.0 Zn
C 1.0 0.504896710737 0.81412903033 0.68959551164 Biso 1.0 C
C 1.0 0.542250442438 0.800624323354 0.704284512568 Biso 1.0 C
H 1.0 0.553273494361 0.816768512181 0.730406457585 Biso 1.0 H
O 1.0 0.560829176763 0.773566064068 0.689591988132 Biso 1.0 O
N 1.0 0.545595203183 0.907386054558 0.73632796423 Biso 1.0 N
C 1.0 0.811119361768 0.504352974355 0.685271999704 Biso 1.0 C
C 1.0 0.796995487159 0.541929373489 0.698534483305 Biso 1.0 C
H 1.0 0.770883600629 0.552909237892 0.682444021106 Biso 1.0 H
O 1.0 0.812130439133 0.560859191185 0.725236017402 Biso 1.0 O
C 1.0 0.813029588703 0.686417985244 0.505770526924 Biso 1.0 C
C 1.0 0.798382791001 0.699581608416 0.543351534731 Biso 1.0 C
H 1.0 0.771378041103 0.684427662891 0.553390008636 Biso 1.0 H
O 1.0 0.814035381207 0.725155725273 0.56333547312 Biso 1.0 O
C 1.0 0.74415527678 0.561480177093 0.56105498053 Biso 1.0 C
C 1.0 0.79721572679 0.565982449962 0.595387985231 Biso 1.0 C
C 1.0 0.797184073254 0.595129666947 0.566979003966 Biso 1.0 C
C 1.0 0.707031241829 0.54684447001 0.546812010955 Biso 1.0 C
H 1.0 0.818916033834 0.559018072158 0.617458511419 Biso 1.0 H
H 1.0 0.819093605165 0.616960919743 0.56036001055 Biso 1.0 H
H 1.0 0.69636883995 0.520229486302 0.562280993481 Biso 1.0 H
O 1.0 0.68827376794 0.561854102299 0.519967523111 Biso 1.0 O
N 1.0 0.763842051763 0.544862427469 0.591470459701 Biso 1.0 N
N 1.0 0.763831037 0.592199669273 0.545746960792 Biso 1.0 N
Zn 1.0 0.874192008858 0.501358627537 0.746414033455 Biso 1.0 Zn
N 1.0 0.704510251847 0.656057970276 0.513533485893 Biso 1.0 N
Zn 1.0 0.876474178751 0.74820416602 0.502684493322 Biso 1.0 Zn
N 1.0 0.702009177446 0.514700794577 0.655126991708 Biso 1.0 N
C 1.0 0.686028814595 0.504824701369 0.811059496669 Biso 1.0 C
C 1.0 0.700366531371 0.54232330361 0.797701990213 Biso 1.0 C
H 1.0 0.726810696586 0.552977810296 0.813463983179 Biso 1.0 H
O 1.0 0.685105799704 0.561411993674 0.771209461655 Biso 1.0 O
C 1.0 0.93694077741 0.562646519217 0.753577996088 Biso 1.0 C
C 1.0 0.932050890183 0.597459461596 0.700787962335 Biso 1.0 C
C 1.0 0.817075233284 0.548829679995 0.844162461553 Biso 1.0 C
C 1.0 0.951426080884 0.683009314405 0.848638994402 Biso 1.0 C
C 1.0 0.951336627657 0.654042530641 0.820105963289 Biso 1.0 C
C 1.0 0.846232868684 0.548703426753 0.815745985843 Biso 1.0 C
C 1.0 0.903226868591 0.568965794076 0.700153954634 Biso 1.0 C
C 1.0 0.949976805093 0.548011590103 0.791211017583 Biso 1.0 C
Zn 1.0 0.997665054768 0.62547662315 0.752018424393 Biso 1.0 Zn
H 1.0 0.938509546691 0.620259063425 0.679763023123 Biso 1.0 H
H 1.0 0.809980557656 0.570644317598 0.866077505966 Biso 1.0 H
H 1.0 0.929884486562 0.689781533885 0.87093647924 Biso 1.0 H
H 1.0 0.929823627215 0.631770391742 0.813834510791 Biso 1.0 H
H 1.0 0.867947472668 0.570658598885 0.808899977849 Biso 1.0 H
H 1.0 0.880969203411 0.563028668666 0.678396013929 Biso 1.0 H
H 1.0 0.934122221935 0.521608825204 0.801681988096 Biso 1.0 H
O 1.0 0.976222092642 0.563067622682 0.810785949416 Biso 1.0 O
N 1.0 0.953017102212 0.593331502918 0.734323479756 Biso 1.0 N
N 1.0 0.796165040783 0.515339229218 0.840664960533 Biso 1.0 N
N 1.0 0.98481349655 0.704093383619 0.84486699534 Biso 1.0 N
N 1.0 0.984531896902 0.657398021747 0.798756973211 Biso 1.0 N
N 1.0 0.843312343206 0.515164019502 0.794841013685 Biso 1.0 N
N 1.0 0.906516722411 0.547349760826 0.733266930755 Biso 1.0 N
C 1.0 0.560761697432 0.563370419301 0.745512015442 Biso 1.0 C
C 1.0 0.680730268533 0.547946740836 0.651333460098 Biso 1.0 C
C 1.0 0.5675501849 0.598150353569 0.798085996642 Biso 1.0 C
C 1.0 0.595842048799 0.569087879628 0.798041980758 Biso 1.0 C
C 1.0 0.651723001338 0.547892116304 0.679848034741 Biso 1.0 C
C 1.0 0.54581377391 0.549284902954 0.70835847066 Biso 1.0 C
Zn 1.0 0.623285108383 0.501979113323 0.748267454521 Biso 1.0 Zn
H 1.0 0.687401710236 0.569482587718 0.629019979653 Biso 1.0 H
H 1.0 0.561588583482 0.620503956929 0.819755961508 Biso 1.0 H
H 1.0 0.618686444816 0.562935312396 0.819131965044 Biso 1.0 H
H 1.0 0.629290768853 0.569250141718 0.686074520567 Biso 1.0 H
H 1.0 0.519490548568 0.564945584094 0.69740947758 Biso 1.0 H
O 1.0 0.560605654956 0.522231089204 0.689739975462 Biso 1.0 O
N 1.0 0.591365270816 0.547377434292 0.765061499718 Biso 1.0 N
N 1.0 0.655230980844 0.514759531231 0.701241488133 Biso 1.0 N
C 1.0 0.755172932582 0.560693983927 0.935013483185 Biso 1.0 C
C 1.0 0.819451584964 0.652602954717 0.952598472005 Biso 1.0 C
C 1.0 0.702067032767 0.566329701948 0.900919965161 Biso 1.0 C
C 1.0 0.703004010817 0.595726924803 0.929000029763 Biso 1.0 C
C 1.0 0.848199727078 0.681199147427 0.953250488746 Biso 1.0 C
C 1.0 0.792145152946 0.5456995776 0.949178879658 Biso 1.0 C
Zn 1.0 0.750329830283 0.623548871727 0.997161003038 Biso 1.0 Zn
H 1.0 0.813425675131 0.630330371265 0.930900486862 Biso 1.0 H
H 1.0 0.680094694454 0.559783593578 0.878986967637 Biso 1.0 H
H 1.0 0.682098602505 0.618594987898 0.935216504352 Biso 1.0 H
H 1.0 0.871138416141 0.68745073899 0.932284945809 Biso 1.0 H
H 1.0 0.802408742521 0.518772739493 0.934026453553 Biso 1.0 H
O 1.0 0.811234460479 0.560857913093 0.975737515936 Biso 1.0 O
N 1.0 0.797589950583 0.65613287757 0.98554740926 Biso 1.0 N
N 1.0 0.734910385895 0.544382198367 0.904812993922 Biso 1.0 N
N 1.0 0.736306034254 0.592011789778 0.950077430092 Biso 1.0 N
N 1.0 0.844154360647 0.702344176064 0.986667996618 Biso 1.0 N
C 1.0 0.995273627327 0.813157124868 0.814721987344 Biso 1.0 C
C 1.0 0.957683467631 0.799082722363 0.801350946143 Biso 1.0 C
H 1.0 0.946782746333 0.772737749441 0.817062491425 Biso 1.0 H
O 1.0 0.938691679692 0.814527405989 0.774861493663 Biso 1.0 O
Zn 1.0 0.998467241046 0.876220897324 0.753361440176 Biso 1.0 Zn
N 1.0 0.955289258684 0.76484180942 0.909046460656 Biso 1.0 N
C 1.0 0.6893114365 0.811285720622 0.505038028789 Biso 1.0 C
C 1.0 0.70414381627 0.797895375078 0.54245801788 Biso 1.0 C
H 1.0 0.730949076571 0.813283989372 0.552647499265 Biso 1.0 H
O 1.0 0.688846925029 0.771897431865 0.562180545542 Biso 1.0 O
C 1.0 0.562994579042 0.745636924141 0.564207513352 Biso 1.0 C
C 1.0 0.683261494457 0.652128504812 0.546908487956 Biso 1.0 C
C 1.0 0.569049416535 0.798742194251 0.598246500896 Biso 1.0 C
C 1.0 0.549144794017 0.682842995763 0.655905015801 Biso 1.0 C
C 1.0 0.548700698798 0.654145333678 0.68475952506 Biso 1.0 C
C 1.0 0.598439808342 0.797519504949 0.570191995709 Biso 1.0 C
C 1.0 0.654724190485 0.680942639959 0.547463468409 Biso 1.0 C
C 1.0 0.547861073452 0.7085849872 0.550584960804 Biso 1.0 C
H 1.0 0.689399443344 0.629234935451 0.567930518876 Biso 1.0 H
H 1.0 0.562997749959 0.82033238782 0.620640518664 Biso 1.0 H
H 1.0 0.571360124678 0.68985844167 0.634380968904 Biso 1.0 H
H 1.0 0.570413244467 0.632256177766 0.691882491958 Biso 1.0 H
H 1.0 0.62153359417 0.81817185698 0.563949514276 Biso 1.0 H
H 1.0 0.632399324124 0.687113711738 0.569087963245 Biso 1.0 H
H 1.0 0.5208255601 0.698725898169 0.565899020841 Biso 1.0 H
O 1.0 0.5629889604 0.68888425787 0.524468496799 Biso 1.0 O
N 1.0 0.546851887511 0.766169135542 0.594293460645 Biso 1.0 N
N 1.0 0.515602615367 0.703670668648 0.658810959002 Biso 1.0 N
N 1.0 0.594508761801 0.764212599269 0.549218454969 Biso 1.0 N
N 1.0 0.658414358622 0.702681647869 0.514483490728 Biso 1.0 N
C 1.0 0.939451475821 0.754938598438 0.564798008527 Biso 1.0 C
C 1.0 0.934385129865 0.702354067383 0.599712951312 Biso 1.0 C
C 1.0 0.818652013302 0.845639605767 0.547229015314 Biso 1.0 C
C 1.0 0.847219135017 0.816861201621 0.547851501703 Biso 1.0 C
C 1.0 0.90519183556 0.7023507888 0.571369015122 Biso 1.0 C
C 1.0 0.954136713933 0.791850334265 0.550220026061 Biso 1.0 C
H 1.0 0.941092675513 0.680879791184 0.622060995692 Biso 1.0 H
H 1.0 0.812391455638 0.868547456415 0.568203059413 Biso 1.0 H
H 1.0 0.869487091768 0.810742309329 0.569554967859 Biso 1.0 H
H 1.0 0.882625145085 0.681064725511 0.565366523724 Biso 1.0 H
H 1.0 0.980818252855 0.802613812169 0.565531513378 Biso 1.0 H
O 1.0 0.939047712436 0.810384443624 0.523249978294 Biso 1.0 O
N 1.0 0.955823975362 0.735473927107 0.595479484578 Biso 1.0 N
N 1.0 0.797528368044 0.841679521669 0.513784549811 Biso 1.0 N
N 1.0 0.843688291532 0.795111802269 0.514848984758 Biso 1.0 N
N 1.0 0.908552339629 0.73532127849 0.54976146668 Biso 1.0 N
C 1.0 0.754884434799 0.936397071412 0.560731992309 Biso 1.0 C
C 1.0 0.816309373472 0.95094675736 0.651650463948 Biso 1.0 C
C 1.0 0.700716667323 0.93144835552 0.593295972347 Biso 1.0 C
C 1.0 0.702375724283 0.901752781582 0.565585037141 Biso 1.0 C
C 1.0 0.844864868493 0.951069787588 0.680634951497 Biso 1.0 C
C 1.0 0.792285007058 0.951356191291 0.547720013338 Biso 1.0 C
Zn 1.0 0.748211602343 0.998040105906 0.623609493505 Biso 1.0 Zn
H 1.0 0.809436050078 0.928999253779 0.629836482689 Biso 1.0 H
H 1.0 0.678504451948 0.938099489694 0.614917502962 Biso 1.0 H
H 1.0 0.68114955272 0.879360001931 0.558629017401 Biso 1.0 H
H 1.0 0.867134049107 0.929664472778 0.687353945422 Biso 1.0 H
H 1.0 0.801854889082 0.97847818846 0.563030493939 Biso 1.0 H
O 1.0 0.812469782842 0.936078104153 0.522083473476 Biso 1.0 O
N 1.0 0.795486965295 0.984462103143 0.654715971719 Biso 1.0 N
N 1.0 0.733669945561 0.95319153112 0.589972968859 Biso 1.0 N
N 1.0 0.736429700003 0.904910168459 0.54555098664 Biso 1.0 N
N 1.0 0.841476938778 0.984555570553 0.701569509936 Biso 1.0 N
C 1.0 0.746141883865 0.937435215371 0.9361084552 Biso 1.0 C
C 1.0 0.68172309922 0.951160143122 0.84432348027 Biso 1.0 C
C 1.0 0.682819791333 0.845805368717 0.952200035973 Biso 1.0 C
C 1.0 0.799040116456 0.932097848432 0.901519017427 Biso 1.0 C
C 1.0 0.798713345152 0.90300809001 0.929885436954 Biso 1.0 C
C 1.0 0.654125387912 0.817142492956 0.952725989432 Biso 1.0 C
C 1.0 0.652803894498 0.951468329954 0.815682450844 Biso 1.0 C
C 1.0 0.708995875018 0.952194730652 0.949998458773 Biso 1.0 C
Zn 1.0 0.7502517256 0.998006319827 0.872002983549 Biso 1.0 Zn
Zn 1.0 0.751841856846 0.874247468011 0.997579014113 Biso 1.0 Zn
H 1.0 0.688987836113 0.929021259186 0.865823981186 Biso 1.0 H
H 1.0 0.688692217675 0.868302896327 0.930692991399 Biso 1.0 H
H 1.0 0.820304060867 0.938368111249 0.878851004976 Biso 1.0 H
H 1.0 0.819900019332 0.880401257766 0.93609603903 Biso 1.0 H
H 1.0 0.631079499614 0.811056608774 0.93182845579 Biso 1.0 H
H 1.0 0.630932914258 0.929660638502 0.808796006403 Biso 1.0 H
H 1.0 0.698615851609 0.978856281357 0.93439893867 Biso 1.0 H
O 1.0 0.689771275042 0.937242056802 0.976569958651 Biso 1.0 O
N 1.0 0.702457889964 0.98471238686 0.841222961135 Biso 1.0 N
N 1.0 0.704810932626 0.841996710713 0.985012507209 Biso 1.0 N
N 1.0 0.766027425253 0.953641419435 0.905617472289 Biso 1.0 N
N 1.0 0.765534598052 0.906486111221 0.951204952609 Biso 1.0 N
N 1.0 0.658403399489 0.795714950462 0.985920453664 Biso 1.0 N
N 1.0 0.655720303348 0.985198506299 0.79493346382 Biso 1.0 N
C 1.0 0.812862809614 0.995457582495 0.810485500459 Biso 1.0 C
C 1.0 0.799331507005 0.958061283167 0.796058022115 Biso 1.0 C
H 1.0 0.815496895623 0.946800627551 0.770055484865 Biso 1.0 H
O 1.0 0.772203870181 0.93964709216 0.810884943208 Biso 1.0 O
C 1.0 0.688938102789 0.687167169317 0.994341525602 Biso 1.0 C
C 1.0 0.702276090744 0.701781037702 0.956818515853 Biso 1.0 C
H 1.0 0.68703076862 0.72865091737 0.946617009798 Biso 1.0 H
O 1.0 0.728117114238 0.686250999771 0.93703849349 Biso 1.0 O
C 1.0 0.813421836653 0.810870729771 0.994619491222 Biso 1.0 C
C 1.0 0.800286676103 0.796316542717 0.956994467531 Biso 1.0 C
H 1.0 0.815626513794 0.769468001624 0.946862984204 Biso 1.0 H
O 1.0 0.774573880027 0.811845469263 0.937073001496 Biso 1.0 O
C 1.0 0.686060523761 0.995071043078 0.68572345614 Biso 1.0 C
C 1.0 0.699613188335 0.957798885362 0.700416987293 Biso 1.0 C
H 1.0 0.683850450499 0.947120150502 0.726945533931 Biso 1.0 H
O 1.0 0.726233311608 0.93884845149 0.685362995693 Biso 1.0 O
C 1.0 0.936288458666 0.938553712407 0.744916486684 Biso 1.0 C
C 1.0 0.93052862768 0.905745540375 0.798939915976 Biso 1.0 C
C 1.0 0.951624012838 0.818358347245 0.655645506651 Biso 1.0 C
C 1.0 0.951613331856 0.847574136634 0.683949006394 Biso 1.0 C
C 1.0 0.901890911347 0.93444181323 0.798018490705 Biso 1.0 C
C 1.0 0.950900265025 0.951151585464 0.707079996593 Biso 1.0 C
H 1.0 0.936788128371 0.883975747124 0.821080464893 Biso 1.0 H
H 1.0 0.929869967102 0.811166691377 0.633675987687 Biso 1.0 H
H 1.0 0.929576796389 0.869281303387 0.690560449436 Biso 1.0 H
H 1.0 0.879637307166 0.941514328715 0.819492928849 Biso 1.0 H
H 1.0 0.97757423825 0.935466953995 0.696955951782 Biso 1.0 H
O 1.0 0.935582512489 0.976874905647 0.68708548768 Biso 1.0 O
N 1.0 0.951965581753 0.908596018511 0.765642990373 Biso 1.0 N
N 1.0 0.985137597608 0.7974892753 0.659364988667 Biso 1.0 N
N 1.0 0.985098211486 0.844766002235 0.705049505275 Biso 1.0 N
N 1.0 0.905577964198 0.954845715328 0.764023463116 Biso 1.0 N
C 1.0 0.938633156809 0.744286981351 0.938850415463 Biso 1.0 C
C 1.0 0.933653260054 0.797906933473 0.90557496648 Biso 1.0 C
C 1.0 0.904167184447 0.796829557653 0.933638476187 Biso 1.0 C
C 1.0 0.953672313722 0.707211038512 0.952690530639 Biso 1.0 C
H 1.0 0.940538154513 0.820148398169 0.884046948645 Biso 1.0 H
H 1.0 0.881948070939 0.818263379467 0.9405184329 Biso 1.0 H
H 1.0 0.98064390807 0.69713006163 0.937432455227 Biso 1.0 H
O 1.0 0.938568403354 0.687915742129 0.979099949155 Biso 1.0 O
N 1.0 0.907386721801 0.763123331637 0.954184050544 Biso 1.0 N
C 1.0 0.562091034692 0.937680053306 0.755949037237 Biso 1.0 C
C 1.0 0.566246715644 0.903977828273 0.702445968535 Biso 1.0 C
C 1.0 0.595164140201 0.932449323678 0.702085508088 Biso 1.0 C
C 1.0 0.548932732013 0.952141273073 0.793677976446 Biso 1.0 C
H 1.0 0.559137409295 0.882120791364 0.680584503813 Biso 1.0 H
H 1.0 0.616643595683 0.939197092707 0.679737519637 Biso 1.0 H
H 1.0 0.564880885027 0.978378052745 0.804425458434 Biso 1.0 H
O 1.0 0.522404009021 0.937153146067 0.812856429751 Biso 1.0 O
N 1.0 0.592385248999 0.953445371266 0.73571794994 Biso 1.0 N
C 1.0 0.995355069817 0.687665958536 0.689026493084 Biso 1.0 C
C 1.0 0.95773575994 0.702101783175 0.702058494528 Biso 1.0 C
H 1.0 0.947131880943 0.728314612518 0.685906454834 Biso 1.0 H
O 1.0 0.938463262434 0.687161556827 0.728596996475 Biso 1.0 O
