#======================================================================

# CRYSTAL DATA

#----------------------------------------------------------------------

data_VESTA_phase_1


_pd_phase_name                         testremove
_cell_length_a                         34.28626
_cell_length_b                         34.32384
_cell_length_c                         34.10322
_cell_angle_alpha                      90.0
_cell_angle_beta                       90.0
_cell_angle_gamma                      90.0
_symmetry_space_group_name_H-M         "P 1"
_symmetry_Int_Tables_number            1

loop_
   "x, y, z"

loop_
   _atom_site_label
   _atom_site_occupancy
   _atom_site_fract_x
   _atom_site_fract_y
   _atom_site_fract_z
   _atom_site_B_iso_or_equiv
   _atom_site_adp_type
   _atom_site_type_symbol
Zn 1.0 0.252173 0.499666 0.00508497 Biso 1.0 Zn
C 1.0 0.00878282 0.37586 0.628548 Biso 1.0 C
C 1.0 0.0835532 0.402573 0.599254 Biso 1.0 C
H 1.0 0.105037 0.370791 0.546428 Biso 1.0 H
O 1.0 0.121578 0.45575 0.629314 Biso 1.0 O
C 1.0 0.127218 0.509656 0.879092 Biso 1.0 C
C 1.0 0.137035 0.403075 0.811237 Biso 1.0 C
C 1.0 0.0974462 0.636271 0.69675 Biso 1.0 C
C 1.0 0.0970584 0.693627 0.639103 Biso 1.0 C
C 1.0 0.195826 0.404451 0.867449 Biso 1.0 C
C 1.0 0.0973921 0.584018 0.906322 Biso 1.0 C
Zn 1.0 0.00399711 0.499807 0.752684 Biso 1.0 Zn
H 1.0 0.123872 0.35992 0.766717 Biso 1.0 H
H 1.0 0.141395 0.622423 0.740341 Biso 1.0 H
H 1.0 0.139822 0.738313 0.626035 Biso 1.0 H
H 1.0 0.240306 0.36144 0.880688 Biso 1.0 H
H 1.0 0.0434982 0.603934 0.87544 Biso 1.0 H
O 1.0 0.127543 0.623272 0.958659 Biso 1.0 O
N 1.0 0.0939817 0.46909 0.819093 Biso 1.0 N
N 1.0 0.0304424 0.594534 0.6904 Biso 1.0 N
N 1.0 0.0300251 0.686981 0.597149 Biso 1.0 N
N 1.0 0.189557 0.471455 0.909261 Biso 1.0 N
N 1.0 0.0297964 0.314669 0.410791 Biso 1.0 N
N 1.0 0.0915115 0.188846 0.530116 Biso 1.0 N
Zn 1.0 0.00446587 0.502685 0.25606 Biso 1.0 Zn
C 1.0 0.00979343 0.628258 0.379191 Biso 1.0 C
C 1.0 0.0845009 0.601249 0.408569 Biso 1.0 C
H 1.0 0.106547 0.633537 0.460813 Biso 1.0 H
O 1.0 0.121658 0.547132 0.379184 Biso 1.0 O
N 1.0 0.0911905 0.814772 0.472656 Biso 1.0 N
C 1.0 0.622239 0.00870596 0.370544 Biso 1.0 C
C 1.0 0.593991 0.0838587 0.397069 Biso 1.0 C
H 1.0 0.541767 0.105819 0.364888 Biso 1.0 H
O 1.0 0.624261 0.121718 0.450472 Biso 1.0 O
C 1.0 0.626059 0.372836 0.011541 Biso 1.0 C
C 1.0 0.596766 0.399163 0.086703 Biso 1.0 C
H 1.0 0.542756 0.368855 0.10678 Biso 1.0 H
O 1.0 0.628071 0.450311 0.126671 Biso 1.0 O
C 1.0 0.488311 0.12296 0.12211 Biso 1.0 C
C 1.0 0.594431 0.131965 0.190776 Biso 1.0 C
C 1.0 0.594368 0.190259 0.133958 Biso 1.0 C
C 1.0 0.414063 0.093689 0.093624 Biso 1.0 C
H 1.0 0.637832 0.118036 0.234917 Biso 1.0 H
H 1.0 0.638187 0.233922 0.12072 Biso 1.0 H
H 1.0 0.392738 0.0404589 0.124562 Biso 1.0 H
O 1.0 0.376548 0.123708 0.039935 Biso 1.0 O
N 1.0 0.527684 0.0897249 0.182941 Biso 1.0 N
N 1.0 0.527662 0.184399 0.091494 Biso 1.0 N
Zn 1.0 0.748384 0.00271729 0.492828 Biso 1.0 Zn
N 1.0 0.409021 0.312116 0.027067 Biso 1.0 N
Zn 1.0 0.752948 0.496408 0.00536899 Biso 1.0 Zn
N 1.0 0.404018 0.0294015 0.310254 Biso 1.0 N
C 1.0 0.372058 0.00964939 0.622119 Biso 1.0 C
C 1.0 0.400733 0.0846465 0.595404 Biso 1.0 C
H 1.0 0.453621 0.105956 0.626928 Biso 1.0 H
O 1.0 0.370212 0.122824 0.542419 Biso 1.0 O
C 1.0 0.873882 0.125293 0.507156 Biso 1.0 C
C 1.0 0.864102 0.194919 0.401576 Biso 1.0 C
C 1.0 0.634151 0.0976594 0.688325 Biso 1.0 C
C 1.0 0.902852 0.366019 0.697278 Biso 1.0 C
C 1.0 0.902673 0.308085 0.640212 Biso 1.0 C
C 1.0 0.692466 0.0974068 0.631492 Biso 1.0 C
C 1.0 0.806454 0.137932 0.400308 Biso 1.0 C
C 1.0 0.899954 0.0960232 0.582422 Biso 1.0 C
Zn 1.0 0.99533 0.250953 0.504037 Biso 1.0 Zn
H 1.0 0.877019 0.240518 0.359526 Biso 1.0 H
H 1.0 0.619961 0.141289 0.732155 Biso 1.0 H
H 1.0 0.859769 0.379563 0.741873 Biso 1.0 H
H 1.0 0.859647 0.263541 0.627669 Biso 1.0 H
H 1.0 0.735895 0.141317 0.6178 Biso 1.0 H
H 1.0 0.761938 0.126057 0.356792 Biso 1.0 H
H 1.0 0.868245 0.0432176 0.603364 Biso 1.0 H
O 1.0 0.952444 0.126135 0.621572 Biso 1.0 O
N 1.0 0.906034 0.186663 0.468647 Biso 1.0 N
N 1.0 0.59233 0.0306786 0.68133 Biso 1.0 N
N 1.0 0.969627 0.408187 0.689734 Biso 1.0 N
N 1.0 0.969064 0.314796 0.597514 Biso 1.0 N
N 1.0 0.686625 0.0303281 0.589682 Biso 1.0 N
N 1.0 0.813033 0.0946995 0.466534 Biso 1.0 N
C 1.0 0.121523 0.126741 0.491024 Biso 1.0 C
C 1.0 0.361461 0.0958935 0.302667 Biso 1.0 C
C 1.0 0.1351 0.196301 0.596172 Biso 1.0 C
C 1.0 0.191684 0.138176 0.596084 Biso 1.0 C
C 1.0 0.303446 0.0957842 0.359696 Biso 1.0 C
C 1.0 0.0916276 0.0985698 0.416717 Biso 1.0 C
Zn 1.0 0.24657 0.00395824 0.496535 Biso 1.0 Zn
H 1.0 0.374803 0.138965 0.25804 Biso 1.0 H
H 1.0 0.123177 0.241008 0.639512 Biso 1.0 H
H 1.0 0.237373 0.125871 0.638264 Biso 1.0 H
H 1.0 0.258582 0.1385 0.372149 Biso 1.0 H
H 1.0 0.038981 0.129891 0.394819 Biso 1.0 H
O 1.0 0.121211 0.0444622 0.37948 Biso 1.0 O
N 1.0 0.182731 0.0947548 0.530123 Biso 1.0 N
N 1.0 0.310462 0.0295191 0.402483 Biso 1.0 N
C 1.0 0.510346 0.121388 0.870027 Biso 1.0 C
C 1.0 0.638903 0.305206 0.905197 Biso 1.0 C
C 1.0 0.404134 0.132659 0.80184 Biso 1.0 C
C 1.0 0.406008 0.191454 0.858 Biso 1.0 C
C 1.0 0.696399 0.362398 0.906501 Biso 1.0 C
C 1.0 0.58429 0.0913992 0.898358 Biso 1.0 C
Zn 1.0 0.50066 0.247098 0.994322 Biso 1.0 Zn
H 1.0 0.626851 0.260661 0.861801 Biso 1.0 H
H 1.0 0.360189 0.119567 0.757974 Biso 1.0 H
H 1.0 0.364197 0.23719 0.870433 Biso 1.0 H
H 1.0 0.742277 0.374902 0.86457 Biso 1.0 H
H 1.0 0.604818 0.0375455 0.868053 Biso 1.0 H
O 1.0 0.622469 0.121716 0.951475 Biso 1.0 O
N 1.0 0.59518 0.312266 0.971095 Biso 1.0 N
N 1.0 0.469821 0.0887644 0.809626 Biso 1.0 N
N 1.0 0.472612 0.184024 0.900155 Biso 1.0 N
N 1.0 0.688309 0.404688 0.973336 Biso 1.0 N
C 1.0 0.990547 0.626314 0.629444 Biso 1.0 C
C 1.0 0.915367 0.598165 0.602702 Biso 1.0 C
H 1.0 0.893565 0.545475 0.634125 Biso 1.0 H
O 1.0 0.877383 0.629055 0.549723 Biso 1.0 O
Zn 1.0 0.996935 0.752442 0.506723 Biso 1.0 Zn
N 1.0 0.910578 0.529684 0.818093 Biso 1.0 N
C 1.0 0.378623 0.622572 0.010076 Biso 1.0 C
C 1.0 0.408288 0.595791 0.084916 Biso 1.0 C
H 1.0 0.461898 0.626568 0.105295 Biso 1.0 H
O 1.0 0.377694 0.543795 0.124361 Biso 1.0 O
C 1.0 0.125989 0.491274 0.128415 Biso 1.0 C
C 1.0 0.366523 0.304257 0.093817 Biso 1.0 C
C 1.0 0.138099 0.597484 0.196493 Biso 1.0 C
C 1.0 0.0982896 0.365686 0.31181 Biso 1.0 C
C 1.0 0.0974014 0.308291 0.369519 Biso 1.0 C
C 1.0 0.19688 0.595039 0.140384 Biso 1.0 C
C 1.0 0.309448 0.361885 0.094927 Biso 1.0 C
C 1.0 0.0957222 0.41717 0.10117 Biso 1.0 C
H 1.0 0.378799 0.25847 0.135861 Biso 1.0 H
H 1.0 0.125996 0.640665 0.241281 Biso 1.0 H
H 1.0 0.14272 0.379717 0.268762 Biso 1.0 H
H 1.0 0.140826 0.264512 0.383765 Biso 1.0 H
H 1.0 0.243067 0.636344 0.127899 Biso 1.0 H
H 1.0 0.264799 0.374227 0.138176 Biso 1.0 H
H 1.0 0.0416511 0.397452 0.131798 Biso 1.0 H
O 1.0 0.125978 0.377769 0.048937 Biso 1.0 O
N 1.0 0.0937037 0.532338 0.188587 Biso 1.0 N
N 1.0 0.0312052 0.407341 0.317622 Biso 1.0 N
N 1.0 0.189018 0.528425 0.098437 Biso 1.0 N
N 1.0 0.316829 0.405363 0.028967 Biso 1.0 N
C 1.0 0.878903 0.509877 0.129596 Biso 1.0 C
C 1.0 0.86877 0.404708 0.199426 Biso 1.0 C
C 1.0 0.637304 0.691279 0.094458 Biso 1.0 C
C 1.0 0.694438 0.633722 0.095703 Biso 1.0 C
C 1.0 0.810384 0.404702 0.142738 Biso 1.0 C
C 1.0 0.908273 0.583701 0.10044 Biso 1.0 C
H 1.0 0.882185 0.36176 0.244122 Biso 1.0 H
H 1.0 0.624783 0.737095 0.136406 Biso 1.0 H
H 1.0 0.738974 0.621485 0.13911 Biso 1.0 H
H 1.0 0.76525 0.362129 0.130733 Biso 1.0 H
H 1.0 0.961637 0.605228 0.131063 Biso 1.0 H
O 1.0 0.878095 0.620769 0.0465 Biso 1.0 O
N 1.0 0.911648 0.470948 0.190959 Biso 1.0 N
N 1.0 0.595057 0.683359 0.027569 Biso 1.0 N
N 1.0 0.687377 0.590224 0.029698 Biso 1.0 N
N 1.0 0.817105 0.470643 0.099523 Biso 1.0 N
C 1.0 0.509769 0.872794 0.121464 Biso 1.0 C
C 1.0 0.632619 0.901894 0.303301 Biso 1.0 C
C 1.0 0.401433 0.862897 0.186592 Biso 1.0 C
C 1.0 0.404751 0.803506 0.13117 Biso 1.0 C
C 1.0 0.68973 0.902139 0.36127 Biso 1.0 C
C 1.0 0.58457 0.902712 0.09544 Biso 1.0 C
Zn 1.0 0.496423 0.99608 0.247219 Biso 1.0 Zn
H 1.0 0.618872 0.857999 0.259673 Biso 1.0 H
H 1.0 0.357009 0.876199 0.229835 Biso 1.0 H
H 1.0 0.362299 0.75872 0.117258 Biso 1.0 H
H 1.0 0.734268 0.859329 0.374708 Biso 1.0 H
H 1.0 0.60371 0.956956 0.126061 Biso 1.0 H
O 1.0 0.62494 0.872156 0.044167 Biso 1.0 O
N 1.0 0.590974 0.968924 0.309432 Biso 1.0 N
N 1.0 0.46734 0.906383 0.179946 Biso 1.0 N
N 1.0 0.472859 0.80982 0.091102 Biso 1.0 N
N 1.0 0.682954 0.969111 0.403139 Biso 1.0 N
C 1.0 0.492284 0.87487 0.872217 Biso 1.0 C
C 1.0 0.363446 0.90232 0.688647 Biso 1.0 C
C 1.0 0.36564 0.691611 0.9044 Biso 1.0 C
C 1.0 0.59808 0.864196 0.803038 Biso 1.0 C
C 1.0 0.597427 0.806016 0.859771 Biso 1.0 C
C 1.0 0.308251 0.634285 0.905452 Biso 1.0 C
C 1.0 0.305608 0.902937 0.631365 Biso 1.0 C
C 1.0 0.417992 0.90439 0.899997 Biso 1.0 C
Zn 1.0 0.500503 0.996013 0.744006 Biso 1.0 Zn
Zn 1.0 0.503684 0.748495 0.995158 Biso 1.0 Zn
H 1.0 0.377976 0.858042 0.731648 Biso 1.0 H
H 1.0 0.377384 0.736606 0.861386 Biso 1.0 H
H 1.0 0.640608 0.876736 0.757702 Biso 1.0 H
H 1.0 0.6398 0.760803 0.872192 Biso 1.0 H
H 1.0 0.262159 0.622113 0.863657 Biso 1.0 H
H 1.0 0.261866 0.859321 0.617592 Biso 1.0 H
H 1.0 0.397232 0.957713 0.868798 Biso 1.0 H
O 1.0 0.379543 0.874484 0.95314 Biso 1.0 O
N 1.0 0.404916 0.969425 0.682446 Biso 1.0 N
N 1.0 0.409622 0.683994 0.970025 Biso 1.0 N
N 1.0 0.532055 0.907283 0.811235 Biso 1.0 N
N 1.0 0.531069 0.812972 0.90241 Biso 1.0 N
N 1.0 0.316807 0.59143 0.971841 Biso 1.0 N
N 1.0 0.311441 0.970397 0.589867 Biso 1.0 N
C 1.0 0.625726 0.990915 0.620971 Biso 1.0 C
C 1.0 0.598663 0.916123 0.592116 Biso 1.0 C
H 1.0 0.630994 0.893601 0.540111 Biso 1.0 H
O 1.0 0.544408 0.879294 0.62177 Biso 1.0 O
C 1.0 0.377876 0.374334 0.988683 Biso 1.0 C
C 1.0 0.404552 0.403562 0.913637 Biso 1.0 C
H 1.0 0.374062 0.457302 0.893234 Biso 1.0 H
O 1.0 0.456234 0.372502 0.874077 Biso 1.0 O
C 1.0 0.626844 0.621741 0.989239 Biso 1.0 C
C 1.0 0.600573 0.592633 0.913989 Biso 1.0 C
H 1.0 0.631253 0.538936 0.893726 Biso 1.0 H
O 1.0 0.549148 0.623691 0.874146 Biso 1.0 O
C 1.0 0.372121 0.990142 0.371447 Biso 1.0 C
C 1.0 0.399226 0.915598 0.400834 Biso 1.0 C
H 1.0 0.367701 0.89424 0.453891 Biso 1.0 H
O 1.0 0.452467 0.877697 0.370726 Biso 1.0 O
C 1.0 0.872577 0.877107 0.489833 Biso 1.0 C
C 1.0 0.861057 0.811491 0.59788 Biso 1.0 C
C 1.0 0.903248 0.636717 0.311291 Biso 1.0 C
C 1.0 0.903227 0.695148 0.367898 Biso 1.0 C
C 1.0 0.803782 0.868884 0.596037 Biso 1.0 C
C 1.0 0.901801 0.902303 0.41416 Biso 1.0 C
H 1.0 0.873576 0.767951 0.642161 Biso 1.0 H
H 1.0 0.85974 0.622333 0.267352 Biso 1.0 H
H 1.0 0.859154 0.738563 0.381121 Biso 1.0 H
H 1.0 0.759275 0.883029 0.638986 Biso 1.0 H
H 1.0 0.955149 0.870934 0.393912 Biso 1.0 H
O 1.0 0.871165 0.95375 0.374171 Biso 1.0 O
N 1.0 0.903931 0.817192 0.531286 Biso 1.0 N
N 1.0 0.970275 0.594979 0.31873 Biso 1.0 N
N 1.0 0.970196 0.689532 0.410099 Biso 1.0 N
N 1.0 0.811156 0.909691 0.528047 Biso 1.0 N
C 1.0 0.877266 0.488574 0.877701 Biso 1.0 C
C 1.0 0.867307 0.595814 0.81115 Biso 1.0 C
C 1.0 0.808334 0.593659 0.867277 Biso 1.0 C
C 1.0 0.907345 0.414422 0.905381 Biso 1.0 C
H 1.0 0.881076 0.640297 0.768094 Biso 1.0 H
H 1.0 0.763896 0.636527 0.881037 Biso 1.0 H
H 1.0 0.961288 0.39426 0.874865 Biso 1.0 H
O 1.0 0.877137 0.375831 0.9582 Biso 1.0 O
N 1.0 0.814773 0.526247 0.908368 Biso 1.0 N
C 1.0 0.124182 0.87536 0.511898 Biso 1.0 C
C 1.0 0.132493 0.807956 0.404892 Biso 1.0 C
C 1.0 0.190328 0.864899 0.404171 Biso 1.0 C
C 1.0 0.0978654 0.904282 0.587356 Biso 1.0 C
H 1.0 0.118275 0.764242 0.361169 Biso 1.0 H
H 1.0 0.233287 0.878394 0.359475 Biso 1.0 H
H 1.0 0.129762 0.956756 0.608851 Biso 1.0 H
O 1.0 0.044808 0.874306 0.625713 Biso 1.0 O
N 1.0 0.184771 0.906891 0.471436 Biso 1.0 N
C 1.0 0.99071 0.375332 0.378053 Biso 1.0 C
C 1.0 0.915471 0.404204 0.404117 Biso 1.0 C
H 1.0 0.894264 0.456629 0.371813 Biso 1.0 H
O 1.0 0.876926 0.374323 0.457194 Biso 1.0 O
Zn 1.0 0.252173 0.499666 1.00508 Biso 1.0 Zn
C 1.0 0.00878282 0.37586 1.62855 Biso 1.0 C
C 1.0 0.0835532 0.402573 1.59925 Biso 1.0 C
H 1.0 0.105037 0.370791 1.54643 Biso 1.0 H
O 1.0 0.121578 0.45575 1.62931 Biso 1.0 O
C 1.0 0.127218 0.509656 1.87909 Biso 1.0 C
C 1.0 0.137035 0.403075 1.81124 Biso 1.0 C
C 1.0 0.0974462 0.636271 1.69675 Biso 1.0 C
C 1.0 0.0970584 0.693627 1.6391 Biso 1.0 C
C 1.0 0.195826 0.404451 1.86745 Biso 1.0 C
C 1.0 0.0973921 0.584018 1.90632 Biso 1.0 C
Zn 1.0 0.00399711 0.499807 1.75268 Biso 1.0 Zn
H 1.0 0.123872 0.35992 1.76672 Biso 1.0 H
H 1.0 0.141395 0.622423 1.74034 Biso 1.0 H
H 1.0 0.139822 0.738313 1.62603 Biso 1.0 H
H 1.0 0.240306 0.36144 1.88069 Biso 1.0 H
H 1.0 0.0434982 0.603934 1.87544 Biso 1.0 H
O 1.0 0.127543 0.623272 1.95866 Biso 1.0 O
N 1.0 0.0939817 0.46909 1.81909 Biso 1.0 N
N 1.0 0.0304424 0.594534 1.6904 Biso 1.0 N
N 1.0 0.0300251 0.686981 1.59715 Biso 1.0 N
N 1.0 0.189557 0.471455 1.90926 Biso 1.0 N
N 1.0 0.0297964 0.314669 1.41079 Biso 1.0 N
N 1.0 0.0915115 0.188846 1.53012 Biso 1.0 N
Zn 1.0 0.00446587 0.502685 1.25606 Biso 1.0 Zn
C 1.0 0.00979343 0.628258 1.37919 Biso 1.0 C
C 1.0 0.0845009 0.601249 1.40857 Biso 1.0 C
H 1.0 0.106547 0.633537 1.46081 Biso 1.0 H
O 1.0 0.121658 0.547132 1.37918 Biso 1.0 O
N 1.0 0.0911905 0.814772 1.47266 Biso 1.0 N
C 1.0 0.622239 0.00870596 1.37054 Biso 1.0 C
C 1.0 0.593991 0.0838587 1.39707 Biso 1.0 C
H 1.0 0.541767 0.105819 1.36489 Biso 1.0 H
O 1.0 0.624261 0.121718 1.45047 Biso 1.0 O
C 1.0 0.626059 0.372836 1.01154 Biso 1.0 C
C 1.0 0.596766 0.399163 1.0867 Biso 1.0 C
H 1.0 0.542756 0.368855 1.10678 Biso 1.0 H
O 1.0 0.628071 0.450311 1.12667 Biso 1.0 O
C 1.0 0.488311 0.12296 1.12211 Biso 1.0 C
C 1.0 0.594431 0.131965 1.19078 Biso 1.0 C
C 1.0 0.594368 0.190259 1.13396 Biso 1.0 C
C 1.0 0.414063 0.093689 1.09362 Biso 1.0 C
H 1.0 0.637832 0.118036 1.23492 Biso 1.0 H
H 1.0 0.638187 0.233922 1.12072 Biso 1.0 H
H 1.0 0.392738 0.0404589 1.12456 Biso 1.0 H
O 1.0 0.376548 0.123708 1.03993 Biso 1.0 O
N 1.0 0.527684 0.0897249 1.18294 Biso 1.0 N
N 1.0 0.527662 0.184399 1.09149 Biso 1.0 N
Zn 1.0 0.748384 0.00271729 1.49283 Biso 1.0 Zn
N 1.0 0.409021 0.312116 1.02707 Biso 1.0 N
Zn 1.0 0.752948 0.496408 1.00537 Biso 1.0 Zn
N 1.0 0.404018 0.0294015 1.31025 Biso 1.0 N
C 1.0 0.372058 0.00964939 1.62212 Biso 1.0 C
C 1.0 0.400733 0.0846465 1.5954 Biso 1.0 C
H 1.0 0.453621 0.105956 1.62693 Biso 1.0 H
O 1.0 0.370212 0.122824 1.54242 Biso 1.0 O
C 1.0 0.873882 0.125293 1.50716 Biso 1.0 C
C 1.0 0.864102 0.194919 1.40158 Biso 1.0 C
C 1.0 0.634151 0.0976594 1.68832 Biso 1.0 C
C 1.0 0.902852 0.366019 1.69728 Biso 1.0 C
C 1.0 0.902673 0.308085 1.64021 Biso 1.0 C
C 1.0 0.692466 0.0974068 1.63149 Biso 1.0 C
C 1.0 0.806454 0.137932 1.40031 Biso 1.0 C
C 1.0 0.899954 0.0960232 1.58242 Biso 1.0 C
Zn 1.0 0.99533 0.250953 1.50404 Biso 1.0 Zn
H 1.0 0.877019 0.240518 1.35953 Biso 1.0 H
H 1.0 0.619961 0.141289 1.73215 Biso 1.0 H
H 1.0 0.859769 0.379563 1.74187 Biso 1.0 H
H 1.0 0.859647 0.263541 1.62767 Biso 1.0 H
H 1.0 0.735895 0.141317 1.6178 Biso 1.0 H
H 1.0 0.761938 0.126057 1.35679 Biso 1.0 H
H 1.0 0.868245 0.0432176 1.60336 Biso 1.0 H
O 1.0 0.952444 0.126135 1.62157 Biso 1.0 O
N 1.0 0.906034 0.186663 1.46865 Biso 1.0 N
N 1.0 0.59233 0.0306786 1.68133 Biso 1.0 N
N 1.0 0.969627 0.408187 1.68973 Biso 1.0 N
N 1.0 0.969064 0.314796 1.59751 Biso 1.0 N
N 1.0 0.686625 0.0303281 1.58968 Biso 1.0 N
N 1.0 0.813033 0.0946995 1.46653 Biso 1.0 N
C 1.0 0.121523 0.126741 1.49102 Biso 1.0 C
C 1.0 0.361461 0.0958935 1.30267 Biso 1.0 C
C 1.0 0.1351 0.196301 1.59617 Biso 1.0 C
C 1.0 0.191684 0.138176 1.59608 Biso 1.0 C
C 1.0 0.303446 0.0957842 1.3597 Biso 1.0 C
C 1.0 0.0916276 0.0985698 1.41672 Biso 1.0 C
Zn 1.0 0.24657 0.00395824 1.49653 Biso 1.0 Zn
H 1.0 0.374803 0.138965 1.25804 Biso 1.0 H
H 1.0 0.123177 0.241008 1.63951 Biso 1.0 H
H 1.0 0.237373 0.125871 1.63826 Biso 1.0 H
H 1.0 0.258582 0.1385 1.37215 Biso 1.0 H
H 1.0 0.038981 0.129891 1.39482 Biso 1.0 H
O 1.0 0.121211 0.0444622 1.37948 Biso 1.0 O
N 1.0 0.182731 0.0947548 1.53012 Biso 1.0 N
N 1.0 0.310462 0.0295191 1.40248 Biso 1.0 N
C 1.0 0.510346 0.121388 1.87003 Biso 1.0 C
C 1.0 0.638903 0.305206 1.9052 Biso 1.0 C
C 1.0 0.404134 0.132659 1.80184 Biso 1.0 C
C 1.0 0.406008 0.191454 1.858 Biso 1.0 C
C 1.0 0.696399 0.362398 1.9065 Biso 1.0 C
C 1.0 0.58429 0.0913992 1.89836 Biso 1.0 C
Zn 1.0 0.50066 0.247098 1.99432 Biso 1.0 Zn
H 1.0 0.626851 0.260661 1.8618 Biso 1.0 H
H 1.0 0.360189 0.119567 1.75797 Biso 1.0 H
H 1.0 0.364197 0.23719 1.87043 Biso 1.0 H
H 1.0 0.742277 0.374902 1.86457 Biso 1.0 H
H 1.0 0.604818 0.0375455 1.86805 Biso 1.0 H
O 1.0 0.622469 0.121716 1.95148 Biso 1.0 O
N 1.0 0.59518 0.312266 1.97109 Biso 1.0 N
N 1.0 0.469821 0.0887644 1.80963 Biso 1.0 N
N 1.0 0.472612 0.184024 1.90015 Biso 1.0 N
N 1.0 0.688309 0.404688 1.97334 Biso 1.0 N
C 1.0 0.990547 0.626314 1.62944 Biso 1.0 C
C 1.0 0.915367 0.598165 1.6027 Biso 1.0 C
H 1.0 0.893565 0.545475 1.63412 Biso 1.0 H
O 1.0 0.877383 0.629055 1.54972 Biso 1.0 O
Zn 1.0 0.996935 0.752442 1.50672 Biso 1.0 Zn
N 1.0 0.910578 0.529684 1.81809 Biso 1.0 N
C 1.0 0.378623 0.622572 1.01008 Biso 1.0 C
C 1.0 0.408288 0.595791 1.08492 Biso 1.0 C
H 1.0 0.461898 0.626568 1.10529 Biso 1.0 H
O 1.0 0.377694 0.543795 1.12436 Biso 1.0 O
C 1.0 0.125989 0.491274 1.12841 Biso 1.0 C
C 1.0 0.366523 0.304257 1.09382 Biso 1.0 C
C 1.0 0.138099 0.597484 1.19649 Biso 1.0 C
C 1.0 0.0982896 0.365686 1.31181 Biso 1.0 C
C 1.0 0.0974014 0.308291 1.36952 Biso 1.0 C
C 1.0 0.19688 0.595039 1.14038 Biso 1.0 C
C 1.0 0.309448 0.361885 1.09493 Biso 1.0 C
C 1.0 0.0957222 0.41717 1.10117 Biso 1.0 C
H 1.0 0.378799 0.25847 1.13586 Biso 1.0 H
H 1.0 0.125996 0.640665 1.24128 Biso 1.0 H
H 1.0 0.14272 0.379717 1.26876 Biso 1.0 H
H 1.0 0.140826 0.264512 1.38376 Biso 1.0 H
H 1.0 0.243067 0.636344 1.1279 Biso 1.0 H
H 1.0 0.264799 0.374227 1.13818 Biso 1.0 H
H 1.0 0.0416511 0.397452 1.1318 Biso 1.0 H
O 1.0 0.125978 0.377769 1.04894 Biso 1.0 O
N 1.0 0.0937037 0.532338 1.18859 Biso 1.0 N
N 1.0 0.0312052 0.407341 1.31762 Biso 1.0 N
N 1.0 0.189018 0.528425 1.09844 Biso 1.0 N
N 1.0 0.316829 0.405363 1.02897 Biso 1.0 N
C 1.0 0.878903 0.509877 1.1296 Biso 1.0 C
C 1.0 0.86877 0.404708 1.19943 Biso 1.0 C
C 1.0 0.637304 0.691279 1.09446 Biso 1.0 C
C 1.0 0.694438 0.633722 1.0957 Biso 1.0 C
C 1.0 0.810384 0.404702 1.14274 Biso 1.0 C
C 1.0 0.908273 0.583701 1.10044 Biso 1.0 C
H 1.0 0.882185 0.36176 1.24412 Biso 1.0 H
H 1.0 0.624783 0.737095 1.13641 Biso 1.0 H
H 1.0 0.738974 0.621485 1.13911 Biso 1.0 H
H 1.0 0.76525 0.362129 1.13073 Biso 1.0 H
H 1.0 0.961637 0.605228 1.13106 Biso 1.0 H
O 1.0 0.878095 0.620769 1.0465 Biso 1.0 O
N 1.0 0.911648 0.470948 1.19096 Biso 1.0 N
N 1.0 0.595057 0.683359 1.02757 Biso 1.0 N
N 1.0 0.687377 0.590224 1.0297 Biso 1.0 N
N 1.0 0.817105 0.470643 1.09952 Biso 1.0 N
C 1.0 0.509769 0.872794 1.12146 Biso 1.0 C
C 1.0 0.632619 0.901894 1.3033 Biso 1.0 C
C 1.0 0.401433 0.862897 1.18659 Biso 1.0 C
C 1.0 0.404751 0.803506 1.13117 Biso 1.0 C
C 1.0 0.68973 0.902139 1.36127 Biso 1.0 C
C 1.0 0.58457 0.902712 1.09544 Biso 1.0 C
Zn 1.0 0.496423 0.99608 1.24722 Biso 1.0 Zn
H 1.0 0.618872 0.857999 1.25967 Biso 1.0 H
H 1.0 0.357009 0.876199 1.22984 Biso 1.0 H
H 1.0 0.362299 0.75872 1.11726 Biso 1.0 H
H 1.0 0.734268 0.859329 1.37471 Biso 1.0 H
H 1.0 0.60371 0.956956 1.12606 Biso 1.0 H
O 1.0 0.62494 0.872156 1.04417 Biso 1.0 O
N 1.0 0.590974 0.968924 1.30943 Biso 1.0 N
N 1.0 0.46734 0.906383 1.17995 Biso 1.0 N
N 1.0 0.472859 0.80982 1.0911 Biso 1.0 N
N 1.0 0.682954 0.969111 1.40314 Biso 1.0 N
C 1.0 0.492284 0.87487 1.87222 Biso 1.0 C
C 1.0 0.363446 0.90232 1.68865 Biso 1.0 C
C 1.0 0.36564 0.691611 1.9044 Biso 1.0 C
C 1.0 0.59808 0.864196 1.80304 Biso 1.0 C
C 1.0 0.597427 0.806016 1.85977 Biso 1.0 C
C 1.0 0.308251 0.634285 1.90545 Biso 1.0 C
C 1.0 0.305608 0.902937 1.63136 Biso 1.0 C
C 1.0 0.417992 0.90439 1.9 Biso 1.0 C
Zn 1.0 0.500503 0.996013 1.74401 Biso 1.0 Zn
Zn 1.0 0.503684 0.748495 1.99516 Biso 1.0 Zn
H 1.0 0.377976 0.858042 1.73165 Biso 1.0 H
H 1.0 0.377384 0.736606 1.86139 Biso 1.0 H
H 1.0 0.640608 0.876736 1.7577 Biso 1.0 H
H 1.0 0.6398 0.760803 1.87219 Biso 1.0 H
H 1.0 0.262159 0.622113 1.86366 Biso 1.0 H
H 1.0 0.261866 0.859321 1.61759 Biso 1.0 H
H 1.0 0.397232 0.957713 1.8688 Biso 1.0 H
O 1.0 0.379543 0.874484 1.95314 Biso 1.0 O
N 1.0 0.404916 0.969425 1.68245 Biso 1.0 N
N 1.0 0.409622 0.683994 1.97003 Biso 1.0 N
N 1.0 0.532055 0.907283 1.81123 Biso 1.0 N
N 1.0 0.531069 0.812972 1.90241 Biso 1.0 N
N 1.0 0.316807 0.59143 1.97184 Biso 1.0 N
N 1.0 0.311441 0.970397 1.58987 Biso 1.0 N
C 1.0 0.625726 0.990915 1.62097 Biso 1.0 C
C 1.0 0.598663 0.916123 1.59212 Biso 1.0 C
H 1.0 0.630994 0.893601 1.54011 Biso 1.0 H
O 1.0 0.544408 0.879294 1.62177 Biso 1.0 O
C 1.0 0.377876 0.374334 1.98868 Biso 1.0 C
C 1.0 0.404552 0.403562 1.91364 Biso 1.0 C
H 1.0 0.374062 0.457302 1.89323 Biso 1.0 H
O 1.0 0.456234 0.372502 1.87408 Biso 1.0 O
C 1.0 0.626844 0.621741 1.98924 Biso 1.0 C
C 1.0 0.600573 0.592633 1.91399 Biso 1.0 C
H 1.0 0.631253 0.538936 1.89373 Biso 1.0 H
O 1.0 0.549148 0.623691 1.87415 Biso 1.0 O
C 1.0 0.372121 0.990142 1.37145 Biso 1.0 C
C 1.0 0.399226 0.915598 1.40083 Biso 1.0 C
H 1.0 0.367701 0.89424 1.45389 Biso 1.0 H
O 1.0 0.452467 0.877697 1.37073 Biso 1.0 O
C 1.0 0.872577 0.877107 1.48983 Biso 1.0 C
C 1.0 0.861057 0.811491 1.59788 Biso 1.0 C
C 1.0 0.903248 0.636717 1.31129 Biso 1.0 C
C 1.0 0.903227 0.695148 1.3679 Biso 1.0 C
C 1.0 0.803782 0.868884 1.59604 Biso 1.0 C
C 1.0 0.901801 0.902303 1.41416 Biso 1.0 C
H 1.0 0.873576 0.767951 1.64216 Biso 1.0 H
H 1.0 0.85974 0.622333 1.26735 Biso 1.0 H
H 1.0 0.859154 0.738563 1.38112 Biso 1.0 H
H 1.0 0.759275 0.883029 1.63899 Biso 1.0 H
H 1.0 0.955149 0.870934 1.39391 Biso 1.0 H
O 1.0 0.871165 0.95375 1.37417 Biso 1.0 O
N 1.0 0.903931 0.817192 1.53129 Biso 1.0 N
N 1.0 0.970275 0.594979 1.31873 Biso 1.0 N
N 1.0 0.970196 0.689532 1.4101 Biso 1.0 N
N 1.0 0.811156 0.909691 1.52805 Biso 1.0 N
C 1.0 0.877266 0.488574 1.8777 Biso 1.0 C
C 1.0 0.867307 0.595814 1.81115 Biso 1.0 C
C 1.0 0.808334 0.593659 1.86728 Biso 1.0 C
C 1.0 0.907345 0.414422 1.90538 Biso 1.0 C
H 1.0 0.881076 0.640297 1.76809 Biso 1.0 H
H 1.0 0.763896 0.636527 1.88104 Biso 1.0 H
H 1.0 0.961288 0.39426 1.87486 Biso 1.0 H
O 1.0 0.877137 0.375831 1.9582 Biso 1.0 O
N 1.0 0.814773 0.526247 1.90837 Biso 1.0 N
C 1.0 0.124182 0.87536 1.5119 Biso 1.0 C
C 1.0 0.132493 0.807956 1.40489 Biso 1.0 C
C 1.0 0.190328 0.864899 1.40417 Biso 1.0 C
C 1.0 0.0978654 0.904282 1.58736 Biso 1.0 C
H 1.0 0.118275 0.764242 1.36117 Biso 1.0 H
H 1.0 0.233287 0.878394 1.35948 Biso 1.0 H
H 1.0 0.129762 0.956756 1.60885 Biso 1.0 H
O 1.0 0.044808 0.874306 1.62571 Biso 1.0 O
N 1.0 0.184771 0.906891 1.47144 Biso 1.0 N
C 1.0 0.99071 0.375332 1.37805 Biso 1.0 C
C 1.0 0.915471 0.404204 1.40412 Biso 1.0 C
H 1.0 0.894264 0.456629 1.37181 Biso 1.0 H
O 1.0 0.876926 0.374323 1.45719 Biso 1.0 O
Zn 1.0 0.252173 1.49967 0.00508497 Biso 1.0 Zn
C 1.0 0.00878282 1.37586 0.628548 Biso 1.0 C
C 1.0 0.0835532 1.40257 0.599254 Biso 1.0 C
H 1.0 0.105037 1.37079 0.546428 Biso 1.0 H
O 1.0 0.121578 1.45575 0.629314 Biso 1.0 O
C 1.0 0.127218 1.50966 0.879092 Biso 1.0 C
C 1.0 0.137035 1.40307 0.811237 Biso 1.0 C
C 1.0 0.0974462 1.63627 0.69675 Biso 1.0 C
C 1.0 0.0970584 1.69363 0.639103 Biso 1.0 C
C 1.0 0.195826 1.40445 0.867449 Biso 1.0 C
C 1.0 0.0973921 1.58402 0.906322 Biso 1.0 C
Zn 1.0 0.00399711 1.49981 0.752684 Biso 1.0 Zn
H 1.0 0.123872 1.35992 0.766717 Biso 1.0 H
H 1.0 0.141395 1.62242 0.740341 Biso 1.0 H
H 1.0 0.139822 1.73831 0.626035 Biso 1.0 H
H 1.0 0.240306 1.36144 0.880688 Biso 1.0 H
H 1.0 0.0434982 1.60393 0.87544 Biso 1.0 H
O 1.0 0.127543 1.62327 0.958659 Biso 1.0 O
N 1.0 0.0939817 1.46909 0.819093 Biso 1.0 N
N 1.0 0.0304424 1.59453 0.6904 Biso 1.0 N
N 1.0 0.0300251 1.68698 0.597149 Biso 1.0 N
N 1.0 0.189557 1.47145 0.909261 Biso 1.0 N
N 1.0 0.0297964 1.31467 0.410791 Biso 1.0 N
N 1.0 0.0915115 1.18885 0.530116 Biso 1.0 N
Zn 1.0 0.00446587 1.50268 0.25606 Biso 1.0 Zn
C 1.0 0.00979343 1.62826 0.379191 Biso 1.0 C
C 1.0 0.0845009 1.60125 0.408569 Biso 1.0 C
H 1.0 0.106547 1.63354 0.460813 Biso 1.0 H
O 1.0 0.121658 1.54713 0.379184 Biso 1.0 O
N 1.0 0.0911905 1.81477 0.472656 Biso 1.0 N
C 1.0 0.622239 1.00871 0.370544 Biso 1.0 C
C 1.0 0.593991 1.08386 0.397069 Biso 1.0 C
H 1.0 0.541767 1.10582 0.364888 Biso 1.0 H
O 1.0 0.624261 1.12172 0.450472 Biso 1.0 O
C 1.0 0.626059 1.37284 0.011541 Biso 1.0 C
C 1.0 0.596766 1.39916 0.086703 Biso 1.0 C
H 1.0 0.542756 1.36886 0.10678 Biso 1.0 H
O 1.0 0.628071 1.45031 0.126671 Biso 1.0 O
C 1.0 0.488311 1.12296 0.12211 Biso 1.0 C
C 1.0 0.594431 1.13196 0.190776 Biso 1.0 C
C 1.0 0.594368 1.19026 0.133958 Biso 1.0 C
C 1.0 0.414063 1.09369 0.093624 Biso 1.0 C
H 1.0 0.637832 1.11804 0.234917 Biso 1.0 H
H 1.0 0.638187 1.23392 0.12072 Biso 1.0 H
H 1.0 0.392738 1.04046 0.124562 Biso 1.0 H
O 1.0 0.376548 1.12371 0.039935 Biso 1.0 O
N 1.0 0.527684 1.08972 0.182941 Biso 1.0 N
N 1.0 0.527662 1.1844 0.091494 Biso 1.0 N
Zn 1.0 0.748384 1.00272 0.492828 Biso 1.0 Zn
N 1.0 0.409021 1.31212 0.027067 Biso 1.0 N
Zn 1.0 0.752948 1.49641 0.00536899 Biso 1.0 Zn
N 1.0 0.404018 1.0294 0.310254 Biso 1.0 N
C 1.0 0.372058 1.00965 0.622119 Biso 1.0 C
C 1.0 0.400733 1.08465 0.595404 Biso 1.0 C
H 1.0 0.453621 1.10596 0.626928 Biso 1.0 H
O 1.0 0.370212 1.12282 0.542419 Biso 1.0 O
C 1.0 0.873882 1.12529 0.507156 Biso 1.0 C
C 1.0 0.864102 1.19492 0.401576 Biso 1.0 C
C 1.0 0.634151 1.09766 0.688325 Biso 1.0 C
C 1.0 0.902852 1.36602 0.697278 Biso 1.0 C
C 1.0 0.902673 1.30809 0.640212 Biso 1.0 C
C 1.0 0.692466 1.09741 0.631492 Biso 1.0 C
C 1.0 0.806454 1.13793 0.400308 Biso 1.0 C
C 1.0 0.899954 1.09602 0.582422 Biso 1.0 C
Zn 1.0 0.99533 1.25095 0.504037 Biso 1.0 Zn
H 1.0 0.877019 1.24052 0.359526 Biso 1.0 H
H 1.0 0.619961 1.14129 0.732155 Biso 1.0 H
H 1.0 0.859769 1.37956 0.741873 Biso 1.0 H
H 1.0 0.859647 1.26354 0.627669 Biso 1.0 H
H 1.0 0.735895 1.14132 0.6178 Biso 1.0 H
H 1.0 0.761938 1.12606 0.356792 Biso 1.0 H
H 1.0 0.868245 1.04322 0.603364 Biso 1.0 H
O 1.0 0.952444 1.12614 0.621572 Biso 1.0 O
N 1.0 0.906034 1.18666 0.468647 Biso 1.0 N
N 1.0 0.59233 1.03068 0.68133 Biso 1.0 N
N 1.0 0.969627 1.40819 0.689734 Biso 1.0 N
N 1.0 0.969064 1.3148 0.597514 Biso 1.0 N
N 1.0 0.686625 1.03033 0.589682 Biso 1.0 N
N 1.0 0.813033 1.0947 0.466534 Biso 1.0 N
C 1.0 0.121523 1.12674 0.491024 Biso 1.0 C
C 1.0 0.361461 1.09589 0.302667 Biso 1.0 C
C 1.0 0.1351 1.1963 0.596172 Biso 1.0 C
C 1.0 0.191684 1.13818 0.596084 Biso 1.0 C
C 1.0 0.303446 1.09578 0.359696 Biso 1.0 C
C 1.0 0.0916276 1.09857 0.416717 Biso 1.0 C
Zn 1.0 0.24657 1.00396 0.496535 Biso 1.0 Zn
H 1.0 0.374803 1.13897 0.25804 Biso 1.0 H
H 1.0 0.123177 1.24101 0.639512 Biso 1.0 H
H 1.0 0.237373 1.12587 0.638264 Biso 1.0 H
H 1.0 0.258582 1.1385 0.372149 Biso 1.0 H
H 1.0 0.038981 1.12989 0.394819 Biso 1.0 H
O 1.0 0.121211 1.04446 0.37948 Biso 1.0 O
N 1.0 0.182731 1.09475 0.530123 Biso 1.0 N
N 1.0 0.310462 1.02952 0.402483 Biso 1.0 N
C 1.0 0.510346 1.12139 0.870027 Biso 1.0 C
C 1.0 0.638903 1.30521 0.905197 Biso 1.0 C
C 1.0 0.404134 1.13266 0.80184 Biso 1.0 C
C 1.0 0.406008 1.19145 0.858 Biso 1.0 C
C 1.0 0.696399 1.3624 0.906501 Biso 1.0 C
C 1.0 0.58429 1.0914 0.898358 Biso 1.0 C
Zn 1.0 0.50066 1.2471 0.994322 Biso 1.0 Zn
H 1.0 0.626851 1.26066 0.861801 Biso 1.0 H
H 1.0 0.360189 1.11957 0.757974 Biso 1.0 H
H 1.0 0.364197 1.23719 0.870433 Biso 1.0 H
H 1.0 0.742277 1.3749 0.86457 Biso 1.0 H
H 1.0 0.604818 1.03755 0.868053 Biso 1.0 H
O 1.0 0.622469 1.12172 0.951475 Biso 1.0 O
N 1.0 0.59518 1.31227 0.971095 Biso 1.0 N
N 1.0 0.469821 1.08876 0.809626 Biso 1.0 N
N 1.0 0.472612 1.18402 0.900155 Biso 1.0 N
N 1.0 0.688309 1.40469 0.973336 Biso 1.0 N
C 1.0 0.990547 1.62631 0.629444 Biso 1.0 C
C 1.0 0.915367 1.59817 0.602702 Biso 1.0 C
H 1.0 0.893565 1.54548 0.634125 Biso 1.0 H
O 1.0 0.877383 1.62905 0.549723 Biso 1.0 O
Zn 1.0 0.996935 1.75244 0.506723 Biso 1.0 Zn
N 1.0 0.910578 1.52968 0.818093 Biso 1.0 N
C 1.0 0.378623 1.62257 0.010076 Biso 1.0 C
C 1.0 0.408288 1.59579 0.084916 Biso 1.0 C
H 1.0 0.461898 1.62657 0.105295 Biso 1.0 H
O 1.0 0.377694 1.54379 0.124361 Biso 1.0 O
C 1.0 0.125989 1.49127 0.128415 Biso 1.0 C
C 1.0 0.366523 1.30426 0.093817 Biso 1.0 C
C 1.0 0.138099 1.59748 0.196493 Biso 1.0 C
C 1.0 0.0982896 1.36569 0.31181 Biso 1.0 C
C 1.0 0.0974014 1.30829 0.369519 Biso 1.0 C
C 1.0 0.19688 1.59504 0.140384 Biso 1.0 C
C 1.0 0.309448 1.36189 0.094927 Biso 1.0 C
C 1.0 0.0957222 1.41717 0.10117 Biso 1.0 C
H 1.0 0.378799 1.25847 0.135861 Biso 1.0 H
H 1.0 0.125996 1.64066 0.241281 Biso 1.0 H
H 1.0 0.14272 1.37972 0.268762 Biso 1.0 H
H 1.0 0.140826 1.26451 0.383765 Biso 1.0 H
H 1.0 0.243067 1.63634 0.127899 Biso 1.0 H
H 1.0 0.264799 1.37423 0.138176 Biso 1.0 H
H 1.0 0.0416511 1.39745 0.131798 Biso 1.0 H
O 1.0 0.125978 1.37777 0.048937 Biso 1.0 O
N 1.0 0.0937037 1.53234 0.188587 Biso 1.0 N
N 1.0 0.0312052 1.40734 0.317622 Biso 1.0 N
N 1.0 0.189018 1.52843 0.098437 Biso 1.0 N
N 1.0 0.316829 1.40536 0.028967 Biso 1.0 N
C 1.0 0.878903 1.50988 0.129596 Biso 1.0 C
C 1.0 0.86877 1.40471 0.199426 Biso 1.0 C
C 1.0 0.637304 1.69128 0.094458 Biso 1.0 C
C 1.0 0.694438 1.63372 0.095703 Biso 1.0 C
C 1.0 0.810384 1.4047 0.142738 Biso 1.0 C
C 1.0 0.908273 1.5837 0.10044 Biso 1.0 C
H 1.0 0.882185 1.36176 0.244122 Biso 1.0 H
H 1.0 0.624783 1.73709 0.136406 Biso 1.0 H
H 1.0 0.738974 1.62148 0.13911 Biso 1.0 H
H 1.0 0.76525 1.36213 0.130733 Biso 1.0 H
H 1.0 0.961637 1.60523 0.131063 Biso 1.0 H
O 1.0 0.878095 1.62077 0.0465 Biso 1.0 O
N 1.0 0.911648 1.47095 0.190959 Biso 1.0 N
N 1.0 0.595057 1.68336 0.027569 Biso 1.0 N
N 1.0 0.687377 1.59022 0.029698 Biso 1.0 N
N 1.0 0.817105 1.47064 0.099523 Biso 1.0 N
C 1.0 0.509769 1.87279 0.121464 Biso 1.0 C
C 1.0 0.632619 1.90189 0.303301 Biso 1.0 C
C 1.0 0.401433 1.8629 0.186592 Biso 1.0 C
C 1.0 0.404751 1.80351 0.13117 Biso 1.0 C
C 1.0 0.68973 1.90214 0.36127 Biso 1.0 C
C 1.0 0.58457 1.90271 0.09544 Biso 1.0 C
Zn 1.0 0.496423 1.99608 0.247219 Biso 1.0 Zn
H 1.0 0.618872 1.858 0.259673 Biso 1.0 H
H 1.0 0.357009 1.8762 0.229835 Biso 1.0 H
H 1.0 0.362299 1.75872 0.117258 Biso 1.0 H
H 1.0 0.734268 1.85933 0.374708 Biso 1.0 H
H 1.0 0.60371 1.95696 0.126061 Biso 1.0 H
O 1.0 0.62494 1.87216 0.044167 Biso 1.0 O
N 1.0 0.590974 1.96892 0.309432 Biso 1.0 N
N 1.0 0.46734 1.90638 0.179946 Biso 1.0 N
N 1.0 0.472859 1.80982 0.091102 Biso 1.0 N
N 1.0 0.682954 1.96911 0.403139 Biso 1.0 N
C 1.0 0.492284 1.87487 0.872217 Biso 1.0 C
C 1.0 0.363446 1.90232 0.688647 Biso 1.0 C
C 1.0 0.36564 1.69161 0.9044 Biso 1.0 C
C 1.0 0.59808 1.8642 0.803038 Biso 1.0 C
C 1.0 0.597427 1.80602 0.859771 Biso 1.0 C
C 1.0 0.308251 1.63428 0.905452 Biso 1.0 C
C 1.0 0.305608 1.90294 0.631365 Biso 1.0 C
C 1.0 0.417992 1.90439 0.899997 Biso 1.0 C
Zn 1.0 0.500503 1.99601 0.744006 Biso 1.0 Zn
Zn 1.0 0.503684 1.74849 0.995158 Biso 1.0 Zn
H 1.0 0.377976 1.85804 0.731648 Biso 1.0 H
H 1.0 0.377384 1.73661 0.861386 Biso 1.0 H
H 1.0 0.640608 1.87674 0.757702 Biso 1.0 H
H 1.0 0.6398 1.7608 0.872192 Biso 1.0 H
H 1.0 0.262159 1.62211 0.863657 Biso 1.0 H
H 1.0 0.261866 1.85932 0.617592 Biso 1.0 H
H 1.0 0.397232 1.95771 0.868798 Biso 1.0 H
O 1.0 0.379543 1.87448 0.95314 Biso 1.0 O
N 1.0 0.404916 1.96942 0.682446 Biso 1.0 N
N 1.0 0.409622 1.68399 0.970025 Biso 1.0 N
N 1.0 0.532055 1.90728 0.811235 Biso 1.0 N
N 1.0 0.531069 1.81297 0.90241 Biso 1.0 N
N 1.0 0.316807 1.59143 0.971841 Biso 1.0 N
N 1.0 0.311441 1.9704 0.589867 Biso 1.0 N
C 1.0 0.625726 1.99092 0.620971 Biso 1.0 C
C 1.0 0.598663 1.91612 0.592116 Biso 1.0 C
H 1.0 0.630994 1.8936 0.540111 Biso 1.0 H
O 1.0 0.544408 1.87929 0.62177 Biso 1.0 O
C 1.0 0.377876 1.37433 0.988683 Biso 1.0 C
C 1.0 0.404552 1.40356 0.913637 Biso 1.0 C
H 1.0 0.374062 1.4573 0.893234 Biso 1.0 H
O 1.0 0.456234 1.3725 0.874077 Biso 1.0 O
C 1.0 0.626844 1.62174 0.989239 Biso 1.0 C
C 1.0 0.600573 1.59263 0.913989 Biso 1.0 C
H 1.0 0.631253 1.53894 0.893726 Biso 1.0 H
O 1.0 0.549148 1.62369 0.874146 Biso 1.0 O
C 1.0 0.372121 1.99014 0.371447 Biso 1.0 C
C 1.0 0.399226 1.9156 0.400834 Biso 1.0 C
H 1.0 0.367701 1.89424 0.453891 Biso 1.0 H
O 1.0 0.452467 1.8777 0.370726 Biso 1.0 O
C 1.0 0.872577 1.87711 0.489833 Biso 1.0 C
C 1.0 0.861057 1.81149 0.59788 Biso 1.0 C
C 1.0 0.903248 1.63672 0.311291 Biso 1.0 C
C 1.0 0.903227 1.69515 0.367898 Biso 1.0 C
C 1.0 0.803782 1.86888 0.596037 Biso 1.0 C
C 1.0 0.901801 1.9023 0.41416 Biso 1.0 C
H 1.0 0.873576 1.76795 0.642161 Biso 1.0 H
H 1.0 0.85974 1.62233 0.267352 Biso 1.0 H
H 1.0 0.859154 1.73856 0.381121 Biso 1.0 H
H 1.0 0.759275 1.88303 0.638986 Biso 1.0 H
H 1.0 0.955149 1.87093 0.393912 Biso 1.0 H
O 1.0 0.871165 1.95375 0.374171 Biso 1.0 O
N 1.0 0.903931 1.81719 0.531286 Biso 1.0 N
N 1.0 0.970275 1.59498 0.31873 Biso 1.0 N
N 1.0 0.970196 1.68953 0.410099 Biso 1.0 N
N 1.0 0.811156 1.90969 0.528047 Biso 1.0 N
C 1.0 0.877266 1.48857 0.877701 Biso 1.0 C
C 1.0 0.867307 1.59581 0.81115 Biso 1.0 C
C 1.0 0.808334 1.59366 0.867277 Biso 1.0 C
C 1.0 0.907345 1.41442 0.905381 Biso 1.0 C
H 1.0 0.881076 1.6403 0.768094 Biso 1.0 H
H 1.0 0.763896 1.63653 0.881037 Biso 1.0 H
H 1.0 0.961288 1.39426 0.874865 Biso 1.0 H
O 1.0 0.877137 1.37583 0.9582 Biso 1.0 O
N 1.0 0.814773 1.52625 0.908368 Biso 1.0 N
C 1.0 0.124182 1.87536 0.511898 Biso 1.0 C
C 1.0 0.132493 1.80796 0.404892 Biso 1.0 C
C 1.0 0.190328 1.8649 0.404171 Biso 1.0 C
C 1.0 0.0978654 1.90428 0.587356 Biso 1.0 C
H 1.0 0.118275 1.76424 0.361169 Biso 1.0 H
H 1.0 0.233287 1.87839 0.359475 Biso 1.0 H
H 1.0 0.129762 1.95676 0.608851 Biso 1.0 H
O 1.0 0.044808 1.87431 0.625713 Biso 1.0 O
N 1.0 0.184771 1.90689 0.471436 Biso 1.0 N
C 1.0 0.99071 1.37533 0.378053 Biso 1.0 C
C 1.0 0.915471 1.4042 0.404117 Biso 1.0 C
H 1.0 0.894264 1.45663 0.371813 Biso 1.0 H
O 1.0 0.876926 1.37432 0.457194 Biso 1.0 O
Zn 1.0 0.252173 1.49967 1.00508 Biso 1.0 Zn
C 1.0 0.00878282 1.37586 1.62855 Biso 1.0 C
C 1.0 0.0835532 1.40257 1.59925 Biso 1.0 C
H 1.0 0.105037 1.37079 1.54643 Biso 1.0 H
O 1.0 0.121578 1.45575 1.62931 Biso 1.0 O
C 1.0 0.127218 1.50966 1.87909 Biso 1.0 C
C 1.0 0.137035 1.40307 1.81124 Biso 1.0 C
C 1.0 0.0974462 1.63627 1.69675 Biso 1.0 C
C 1.0 0.0970584 1.69363 1.6391 Biso 1.0 C
C 1.0 0.195826 1.40445 1.86745 Biso 1.0 C
C 1.0 0.0973921 1.58402 1.90632 Biso 1.0 C
Zn 1.0 0.00399711 1.49981 1.75268 Biso 1.0 Zn
H 1.0 0.123872 1.35992 1.76672 Biso 1.0 H
H 1.0 0.141395 1.62242 1.74034 Biso 1.0 H
H 1.0 0.139822 1.73831 1.62603 Biso 1.0 H
H 1.0 0.240306 1.36144 1.88069 Biso 1.0 H
H 1.0 0.0434982 1.60393 1.87544 Biso 1.0 H
O 1.0 0.127543 1.62327 1.95866 Biso 1.0 O
N 1.0 0.0939817 1.46909 1.81909 Biso 1.0 N
N 1.0 0.0304424 1.59453 1.6904 Biso 1.0 N
N 1.0 0.0300251 1.68698 1.59715 Biso 1.0 N
N 1.0 0.189557 1.47145 1.90926 Biso 1.0 N
N 1.0 0.0297964 1.31467 1.41079 Biso 1.0 N
N 1.0 0.0915115 1.18885 1.53012 Biso 1.0 N
Zn 1.0 0.00446587 1.50268 1.25606 Biso 1.0 Zn
C 1.0 0.00979343 1.62826 1.37919 Biso 1.0 C
C 1.0 0.0845009 1.60125 1.40857 Biso 1.0 C
H 1.0 0.106547 1.63354 1.46081 Biso 1.0 H
O 1.0 0.121658 1.54713 1.37918 Biso 1.0 O
N 1.0 0.0911905 1.81477 1.47266 Biso 1.0 N
C 1.0 0.622239 1.00871 1.37054 Biso 1.0 C
C 1.0 0.593991 1.08386 1.39707 Biso 1.0 C
H 1.0 0.541767 1.10582 1.36489 Biso 1.0 H
O 1.0 0.624261 1.12172 1.45047 Biso 1.0 O
C 1.0 0.626059 1.37284 1.01154 Biso 1.0 C
C 1.0 0.596766 1.39916 1.0867 Biso 1.0 C
H 1.0 0.542756 1.36886 1.10678 Biso 1.0 H
O 1.0 0.628071 1.45031 1.12667 Biso 1.0 O
C 1.0 0.488311 1.12296 1.12211 Biso 1.0 C
C 1.0 0.594431 1.13196 1.19078 Biso 1.0 C
C 1.0 0.594368 1.19026 1.13396 Biso 1.0 C
C 1.0 0.414063 1.09369 1.09362 Biso 1.0 C
H 1.0 0.637832 1.11804 1.23492 Biso 1.0 H
H 1.0 0.638187 1.23392 1.12072 Biso 1.0 H
H 1.0 0.392738 1.04046 1.12456 Biso 1.0 H
O 1.0 0.376548 1.12371 1.03993 Biso 1.0 O
N 1.0 0.527684 1.08972 1.18294 Biso 1.0 N
N 1.0 0.527662 1.1844 1.09149 Biso 1.0 N
Zn 1.0 0.748384 1.00272 1.49283 Biso 1.0 Zn
N 1.0 0.409021 1.31212 1.02707 Biso 1.0 N
Zn 1.0 0.752948 1.49641 1.00537 Biso 1.0 Zn
N 1.0 0.404018 1.0294 1.31025 Biso 1.0 N
C 1.0 0.372058 1.00965 1.62212 Biso 1.0 C
C 1.0 0.400733 1.08465 1.5954 Biso 1.0 C
H 1.0 0.453621 1.10596 1.62693 Biso 1.0 H
O 1.0 0.370212 1.12282 1.54242 Biso 1.0 O
C 1.0 0.873882 1.12529 1.50716 Biso 1.0 C
C 1.0 0.864102 1.19492 1.40158 Biso 1.0 C
C 1.0 0.634151 1.09766 1.68832 Biso 1.0 C
C 1.0 0.902852 1.36602 1.69728 Biso 1.0 C
C 1.0 0.902673 1.30809 1.64021 Biso 1.0 C
C 1.0 0.692466 1.09741 1.63149 Biso 1.0 C
C 1.0 0.806454 1.13793 1.40031 Biso 1.0 C
C 1.0 0.899954 1.09602 1.58242 Biso 1.0 C
Zn 1.0 0.99533 1.25095 1.50404 Biso 1.0 Zn
H 1.0 0.877019 1.24052 1.35953 Biso 1.0 H
H 1.0 0.619961 1.14129 1.73215 Biso 1.0 H
H 1.0 0.859769 1.37956 1.74187 Biso 1.0 H
H 1.0 0.859647 1.26354 1.62767 Biso 1.0 H
H 1.0 0.735895 1.14132 1.6178 Biso 1.0 H
H 1.0 0.761938 1.12606 1.35679 Biso 1.0 H
H 1.0 0.868245 1.04322 1.60336 Biso 1.0 H
O 1.0 0.952444 1.12614 1.62157 Biso 1.0 O
N 1.0 0.906034 1.18666 1.46865 Biso 1.0 N
N 1.0 0.59233 1.03068 1.68133 Biso 1.0 N
N 1.0 0.969627 1.40819 1.68973 Biso 1.0 N
N 1.0 0.969064 1.3148 1.59751 Biso 1.0 N
N 1.0 0.686625 1.03033 1.58968 Biso 1.0 N
N 1.0 0.813033 1.0947 1.46653 Biso 1.0 N
C 1.0 0.121523 1.12674 1.49102 Biso 1.0 C
C 1.0 0.361461 1.09589 1.30267 Biso 1.0 C
C 1.0 0.1351 1.1963 1.59617 Biso 1.0 C
C 1.0 0.191684 1.13818 1.59608 Biso 1.0 C
C 1.0 0.303446 1.09578 1.3597 Biso 1.0 C
C 1.0 0.0916276 1.09857 1.41672 Biso 1.0 C
Zn 1.0 0.24657 1.00396 1.49653 Biso 1.0 Zn
H 1.0 0.374803 1.13897 1.25804 Biso 1.0 H
H 1.0 0.123177 1.24101 1.63951 Biso 1.0 H
H 1.0 0.237373 1.12587 1.63826 Biso 1.0 H
H 1.0 0.258582 1.1385 1.37215 Biso 1.0 H
H 1.0 0.038981 1.12989 1.39482 Biso 1.0 H
O 1.0 0.121211 1.04446 1.37948 Biso 1.0 O
N 1.0 0.182731 1.09475 1.53012 Biso 1.0 N
N 1.0 0.310462 1.02952 1.40248 Biso 1.0 N
C 1.0 0.510346 1.12139 1.87003 Biso 1.0 C
C 1.0 0.638903 1.30521 1.9052 Biso 1.0 C
C 1.0 0.404134 1.13266 1.80184 Biso 1.0 C
C 1.0 0.406008 1.19145 1.858 Biso 1.0 C
C 1.0 0.696399 1.3624 1.9065 Biso 1.0 C
C 1.0 0.58429 1.0914 1.89836 Biso 1.0 C
Zn 1.0 0.50066 1.2471 1.99432 Biso 1.0 Zn
H 1.0 0.626851 1.26066 1.8618 Biso 1.0 H
H 1.0 0.360189 1.11957 1.75797 Biso 1.0 H
H 1.0 0.364197 1.23719 1.87043 Biso 1.0 H
H 1.0 0.742277 1.3749 1.86457 Biso 1.0 H
H 1.0 0.604818 1.03755 1.86805 Biso 1.0 H
O 1.0 0.622469 1.12172 1.95148 Biso 1.0 O
N 1.0 0.59518 1.31227 1.97109 Biso 1.0 N
N 1.0 0.469821 1.08876 1.80963 Biso 1.0 N
N 1.0 0.472612 1.18402 1.90015 Biso 1.0 N
N 1.0 0.688309 1.40469 1.97334 Biso 1.0 N
C 1.0 0.990547 1.62631 1.62944 Biso 1.0 C
C 1.0 0.915367 1.59817 1.6027 Biso 1.0 C
H 1.0 0.893565 1.54548 1.63412 Biso 1.0 H
O 1.0 0.877383 1.62905 1.54972 Biso 1.0 O
Zn 1.0 0.996935 1.75244 1.50672 Biso 1.0 Zn
N 1.0 0.910578 1.52968 1.81809 Biso 1.0 N
C 1.0 0.378623 1.62257 1.01008 Biso 1.0 C
C 1.0 0.408288 1.59579 1.08492 Biso 1.0 C
H 1.0 0.461898 1.62657 1.10529 Biso 1.0 H
O 1.0 0.377694 1.54379 1.12436 Biso 1.0 O
C 1.0 0.125989 1.49127 1.12841 Biso 1.0 C
C 1.0 0.366523 1.30426 1.09382 Biso 1.0 C
C 1.0 0.138099 1.59748 1.19649 Biso 1.0 C
C 1.0 0.0982896 1.36569 1.31181 Biso 1.0 C
C 1.0 0.0974014 1.30829 1.36952 Biso 1.0 C
C 1.0 0.19688 1.59504 1.14038 Biso 1.0 C
C 1.0 0.309448 1.36189 1.09493 Biso 1.0 C
C 1.0 0.0957222 1.41717 1.10117 Biso 1.0 C
H 1.0 0.378799 1.25847 1.13586 Biso 1.0 H
H 1.0 0.125996 1.64066 1.24128 Biso 1.0 H
H 1.0 0.14272 1.37972 1.26876 Biso 1.0 H
H 1.0 0.140826 1.26451 1.38376 Biso 1.0 H
H 1.0 0.243067 1.63634 1.1279 Biso 1.0 H
H 1.0 0.264799 1.37423 1.13818 Biso 1.0 H
H 1.0 0.0416511 1.39745 1.1318 Biso 1.0 H
O 1.0 0.125978 1.37777 1.04894 Biso 1.0 O
N 1.0 0.0937037 1.53234 1.18859 Biso 1.0 N
N 1.0 0.0312052 1.40734 1.31762 Biso 1.0 N
N 1.0 0.189018 1.52843 1.09844 Biso 1.0 N
N 1.0 0.316829 1.40536 1.02897 Biso 1.0 N
C 1.0 0.878903 1.50988 1.1296 Biso 1.0 C
C 1.0 0.86877 1.40471 1.19943 Biso 1.0 C
C 1.0 0.637304 1.69128 1.09446 Biso 1.0 C
C 1.0 0.694438 1.63372 1.0957 Biso 1.0 C
C 1.0 0.810384 1.4047 1.14274 Biso 1.0 C
C 1.0 0.908273 1.5837 1.10044 Biso 1.0 C
H 1.0 0.882185 1.36176 1.24412 Biso 1.0 H
H 1.0 0.624783 1.73709 1.13641 Biso 1.0 H
H 1.0 0.738974 1.62148 1.13911 Biso 1.0 H
H 1.0 0.76525 1.36213 1.13073 Biso 1.0 H
H 1.0 0.961637 1.60523 1.13106 Biso 1.0 H
O 1.0 0.878095 1.62077 1.0465 Biso 1.0 O
N 1.0 0.911648 1.47095 1.19096 Biso 1.0 N
N 1.0 0.595057 1.68336 1.02757 Biso 1.0 N
N 1.0 0.687377 1.59022 1.0297 Biso 1.0 N
N 1.0 0.817105 1.47064 1.09952 Biso 1.0 N
C 1.0 0.509769 1.87279 1.12146 Biso 1.0 C
C 1.0 0.632619 1.90189 1.3033 Biso 1.0 C
C 1.0 0.401433 1.8629 1.18659 Biso 1.0 C
C 1.0 0.404751 1.80351 1.13117 Biso 1.0 C
C 1.0 0.68973 1.90214 1.36127 Biso 1.0 C
C 1.0 0.58457 1.90271 1.09544 Biso 1.0 C
Zn 1.0 0.496423 1.99608 1.24722 Biso 1.0 Zn
H 1.0 0.618872 1.858 1.25967 Biso 1.0 H
H 1.0 0.357009 1.8762 1.22984 Biso 1.0 H
H 1.0 0.362299 1.75872 1.11726 Biso 1.0 H
H 1.0 0.734268 1.85933 1.37471 Biso 1.0 H
H 1.0 0.60371 1.95696 1.12606 Biso 1.0 H
O 1.0 0.62494 1.87216 1.04417 Biso 1.0 O
N 1.0 0.590974 1.96892 1.30943 Biso 1.0 N
N 1.0 0.46734 1.90638 1.17995 Biso 1.0 N
N 1.0 0.472859 1.80982 1.0911 Biso 1.0 N
N 1.0 0.682954 1.96911 1.40314 Biso 1.0 N
C 1.0 0.492284 1.87487 1.87222 Biso 1.0 C
C 1.0 0.363446 1.90232 1.68865 Biso 1.0 C
C 1.0 0.36564 1.69161 1.9044 Biso 1.0 C
C 1.0 0.59808 1.8642 1.80304 Biso 1.0 C
C 1.0 0.597427 1.80602 1.85977 Biso 1.0 C
C 1.0 0.308251 1.63428 1.90545 Biso 1.0 C
C 1.0 0.305608 1.90294 1.63136 Biso 1.0 C
C 1.0 0.417992 1.90439 1.9 Biso 1.0 C
Zn 1.0 0.500503 1.99601 1.74401 Biso 1.0 Zn
Zn 1.0 0.503684 1.74849 1.99516 Biso 1.0 Zn
H 1.0 0.377976 1.85804 1.73165 Biso 1.0 H
H 1.0 0.377384 1.73661 1.86139 Biso 1.0 H
H 1.0 0.640608 1.87674 1.7577 Biso 1.0 H
H 1.0 0.6398 1.7608 1.87219 Biso 1.0 H
H 1.0 0.262159 1.62211 1.86366 Biso 1.0 H
H 1.0 0.261866 1.85932 1.61759 Biso 1.0 H
H 1.0 0.397232 1.95771 1.8688 Biso 1.0 H
O 1.0 0.379543 1.87448 1.95314 Biso 1.0 O
N 1.0 0.404916 1.96942 1.68245 Biso 1.0 N
N 1.0 0.409622 1.68399 1.97003 Biso 1.0 N
N 1.0 0.532055 1.90728 1.81123 Biso 1.0 N
N 1.0 0.531069 1.81297 1.90241 Biso 1.0 N
N 1.0 0.316807 1.59143 1.97184 Biso 1.0 N
N 1.0 0.311441 1.9704 1.58987 Biso 1.0 N
C 1.0 0.625726 1.99092 1.62097 Biso 1.0 C
C 1.0 0.598663 1.91612 1.59212 Biso 1.0 C
H 1.0 0.630994 1.8936 1.54011 Biso 1.0 H
O 1.0 0.544408 1.87929 1.62177 Biso 1.0 O
C 1.0 0.377876 1.37433 1.98868 Biso 1.0 C
C 1.0 0.404552 1.40356 1.91364 Biso 1.0 C
H 1.0 0.374062 1.4573 1.89323 Biso 1.0 H
O 1.0 0.456234 1.3725 1.87408 Biso 1.0 O
C 1.0 0.626844 1.62174 1.98924 Biso 1.0 C
C 1.0 0.600573 1.59263 1.91399 Biso 1.0 C
H 1.0 0.631253 1.53894 1.89373 Biso 1.0 H
O 1.0 0.549148 1.62369 1.87415 Biso 1.0 O
C 1.0 0.372121 1.99014 1.37145 Biso 1.0 C
C 1.0 0.399226 1.9156 1.40083 Biso 1.0 C
H 1.0 0.367701 1.89424 1.45389 Biso 1.0 H
O 1.0 0.452467 1.8777 1.37073 Biso 1.0 O
C 1.0 0.872577 1.87711 1.48983 Biso 1.0 C
C 1.0 0.861057 1.81149 1.59788 Biso 1.0 C
C 1.0 0.903248 1.63672 1.31129 Biso 1.0 C
C 1.0 0.903227 1.69515 1.3679 Biso 1.0 C
C 1.0 0.803782 1.86888 1.59604 Biso 1.0 C
C 1.0 0.901801 1.9023 1.41416 Biso 1.0 C
H 1.0 0.873576 1.76795 1.64216 Biso 1.0 H
H 1.0 0.85974 1.62233 1.26735 Biso 1.0 H
H 1.0 0.859154 1.73856 1.38112 Biso 1.0 H
H 1.0 0.759275 1.88303 1.63899 Biso 1.0 H
H 1.0 0.955149 1.87093 1.39391 Biso 1.0 H
O 1.0 0.871165 1.95375 1.37417 Biso 1.0 O
N 1.0 0.903931 1.81719 1.53129 Biso 1.0 N
N 1.0 0.970275 1.59498 1.31873 Biso 1.0 N
N 1.0 0.970196 1.68953 1.4101 Biso 1.0 N
N 1.0 0.811156 1.90969 1.52805 Biso 1.0 N
C 1.0 0.877266 1.48857 1.8777 Biso 1.0 C
C 1.0 0.867307 1.59581 1.81115 Biso 1.0 C
C 1.0 0.808334 1.59366 1.86728 Biso 1.0 C
C 1.0 0.907345 1.41442 1.90538 Biso 1.0 C
H 1.0 0.881076 1.6403 1.76809 Biso 1.0 H
H 1.0 0.763896 1.63653 1.88104 Biso 1.0 H
H 1.0 0.961288 1.39426 1.87486 Biso 1.0 H
O 1.0 0.877137 1.37583 1.9582 Biso 1.0 O
N 1.0 0.814773 1.52625 1.90837 Biso 1.0 N
C 1.0 0.124182 1.87536 1.5119 Biso 1.0 C
C 1.0 0.132493 1.80796 1.40489 Biso 1.0 C
C 1.0 0.190328 1.8649 1.40417 Biso 1.0 C
C 1.0 0.0978654 1.90428 1.58736 Biso 1.0 C
H 1.0 0.118275 1.76424 1.36117 Biso 1.0 H
H 1.0 0.233287 1.87839 1.35948 Biso 1.0 H
H 1.0 0.129762 1.95676 1.60885 Biso 1.0 H
O 1.0 0.044808 1.87431 1.62571 Biso 1.0 O
N 1.0 0.184771 1.90689 1.47144 Biso 1.0 N
C 1.0 0.99071 1.37533 1.37805 Biso 1.0 C
C 1.0 0.915471 1.4042 1.40412 Biso 1.0 C
H 1.0 0.894264 1.45663 1.37181 Biso 1.0 H
O 1.0 0.876926 1.37432 1.45719 Biso 1.0 O
Zn 1.0 1.25217 0.499666 0.00508497 Biso 1.0 Zn
C 1.0 1.00878 0.37586 0.628548 Biso 1.0 C
C 1.0 1.08355 0.402573 0.599254 Biso 1.0 C
H 1.0 1.10504 0.370791 0.546428 Biso 1.0 H
O 1.0 1.12158 0.45575 0.629314 Biso 1.0 O
C 1.0 1.12722 0.509656 0.879092 Biso 1.0 C
C 1.0 1.13704 0.403075 0.811237 Biso 1.0 C
C 1.0 1.09745 0.636271 0.69675 Biso 1.0 C
C 1.0 1.09706 0.693627 0.639103 Biso 1.0 C
C 1.0 1.19583 0.404451 0.867449 Biso 1.0 C
C 1.0 1.09739 0.584018 0.906322 Biso 1.0 C
Zn 1.0 1.004 0.499807 0.752684 Biso 1.0 Zn
H 1.0 1.12387 0.35992 0.766717 Biso 1.0 H
H 1.0 1.14139 0.622423 0.740341 Biso 1.0 H
H 1.0 1.13982 0.738313 0.626035 Biso 1.0 H
H 1.0 1.24031 0.36144 0.880688 Biso 1.0 H
H 1.0 1.0435 0.603934 0.87544 Biso 1.0 H
O 1.0 1.12754 0.623272 0.958659 Biso 1.0 O
N 1.0 1.09398 0.46909 0.819093 Biso 1.0 N
N 1.0 1.03044 0.594534 0.6904 Biso 1.0 N
N 1.0 1.03003 0.686981 0.597149 Biso 1.0 N
N 1.0 1.18956 0.471455 0.909261 Biso 1.0 N
N 1.0 1.0298 0.314669 0.410791 Biso 1.0 N
N 1.0 1.09151 0.188846 0.530116 Biso 1.0 N
Zn 1.0 1.00447 0.502685 0.25606 Biso 1.0 Zn
C 1.0 1.00979 0.628258 0.379191 Biso 1.0 C
C 1.0 1.0845 0.601249 0.408569 Biso 1.0 C
H 1.0 1.10655 0.633537 0.460813 Biso 1.0 H
O 1.0 1.12166 0.547132 0.379184 Biso 1.0 O
N 1.0 1.09119 0.814772 0.472656 Biso 1.0 N
C 1.0 1.62224 0.00870596 0.370544 Biso 1.0 C
C 1.0 1.59399 0.0838587 0.397069 Biso 1.0 C
H 1.0 1.54177 0.105819 0.364888 Biso 1.0 H
O 1.0 1.62426 0.121718 0.450472 Biso 1.0 O
C 1.0 1.62606 0.372836 0.011541 Biso 1.0 C
C 1.0 1.59677 0.399163 0.086703 Biso 1.0 C
H 1.0 1.54276 0.368855 0.10678 Biso 1.0 H
O 1.0 1.62807 0.450311 0.126671 Biso 1.0 O
C 1.0 1.48831 0.12296 0.12211 Biso 1.0 C
C 1.0 1.59443 0.131965 0.190776 Biso 1.0 C
C 1.0 1.59437 0.190259 0.133958 Biso 1.0 C
C 1.0 1.41406 0.093689 0.093624 Biso 1.0 C
H 1.0 1.63783 0.118036 0.234917 Biso 1.0 H
H 1.0 1.63819 0.233922 0.12072 Biso 1.0 H
H 1.0 1.39274 0.0404589 0.124562 Biso 1.0 H
O 1.0 1.37655 0.123708 0.039935 Biso 1.0 O
N 1.0 1.52768 0.0897249 0.182941 Biso 1.0 N
N 1.0 1.52766 0.184399 0.091494 Biso 1.0 N
Zn 1.0 1.74838 0.00271729 0.492828 Biso 1.0 Zn
N 1.0 1.40902 0.312116 0.027067 Biso 1.0 N
Zn 1.0 1.75295 0.496408 0.00536899 Biso 1.0 Zn
N 1.0 1.40402 0.0294015 0.310254 Biso 1.0 N
C 1.0 1.37206 0.00964939 0.622119 Biso 1.0 C
C 1.0 1.40073 0.0846465 0.595404 Biso 1.0 C
H 1.0 1.45362 0.105956 0.626928 Biso 1.0 H
O 1.0 1.37021 0.122824 0.542419 Biso 1.0 O
C 1.0 1.87388 0.125293 0.507156 Biso 1.0 C
C 1.0 1.8641 0.194919 0.401576 Biso 1.0 C
C 1.0 1.63415 0.0976594 0.688325 Biso 1.0 C
C 1.0 1.90285 0.366019 0.697278 Biso 1.0 C
C 1.0 1.90267 0.308085 0.640212 Biso 1.0 C
C 1.0 1.69247 0.0974068 0.631492 Biso 1.0 C
C 1.0 1.80645 0.137932 0.400308 Biso 1.0 C
C 1.0 1.89995 0.0960232 0.582422 Biso 1.0 C
Zn 1.0 1.99533 0.250953 0.504037 Biso 1.0 Zn
H 1.0 1.87702 0.240518 0.359526 Biso 1.0 H
H 1.0 1.61996 0.141289 0.732155 Biso 1.0 H
H 1.0 1.85977 0.379563 0.741873 Biso 1.0 H
H 1.0 1.85965 0.263541 0.627669 Biso 1.0 H
H 1.0 1.73589 0.141317 0.6178 Biso 1.0 H
H 1.0 1.76194 0.126057 0.356792 Biso 1.0 H
H 1.0 1.86824 0.0432176 0.603364 Biso 1.0 H
O 1.0 1.95244 0.126135 0.621572 Biso 1.0 O
N 1.0 1.90603 0.186663 0.468647 Biso 1.0 N
N 1.0 1.59233 0.0306786 0.68133 Biso 1.0 N
N 1.0 1.96963 0.408187 0.689734 Biso 1.0 N
N 1.0 1.96906 0.314796 0.597514 Biso 1.0 N
N 1.0 1.68662 0.0303281 0.589682 Biso 1.0 N
N 1.0 1.81303 0.0946995 0.466534 Biso 1.0 N
C 1.0 1.12152 0.126741 0.491024 Biso 1.0 C
C 1.0 1.36146 0.0958935 0.302667 Biso 1.0 C
C 1.0 1.1351 0.196301 0.596172 Biso 1.0 C
C 1.0 1.19168 0.138176 0.596084 Biso 1.0 C
C 1.0 1.30345 0.0957842 0.359696 Biso 1.0 C
C 1.0 1.09163 0.0985698 0.416717 Biso 1.0 C
Zn 1.0 1.24657 0.00395824 0.496535 Biso 1.0 Zn
H 1.0 1.3748 0.138965 0.25804 Biso 1.0 H
H 1.0 1.12318 0.241008 0.639512 Biso 1.0 H
H 1.0 1.23737 0.125871 0.638264 Biso 1.0 H
H 1.0 1.25858 0.1385 0.372149 Biso 1.0 H
H 1.0 1.03898 0.129891 0.394819 Biso 1.0 H
O 1.0 1.12121 0.0444622 0.37948 Biso 1.0 O
N 1.0 1.18273 0.0947548 0.530123 Biso 1.0 N
N 1.0 1.31046 0.0295191 0.402483 Biso 1.0 N
C 1.0 1.51035 0.121388 0.870027 Biso 1.0 C
C 1.0 1.6389 0.305206 0.905197 Biso 1.0 C
C 1.0 1.40413 0.132659 0.80184 Biso 1.0 C
C 1.0 1.40601 0.191454 0.858 Biso 1.0 C
C 1.0 1.6964 0.362398 0.906501 Biso 1.0 C
C 1.0 1.58429 0.0913992 0.898358 Biso 1.0 C
Zn 1.0 1.50066 0.247098 0.994322 Biso 1.0 Zn
H 1.0 1.62685 0.260661 0.861801 Biso 1.0 H
H 1.0 1.36019 0.119567 0.757974 Biso 1.0 H
H 1.0 1.3642 0.23719 0.870433 Biso 1.0 H
H 1.0 1.74228 0.374902 0.86457 Biso 1.0 H
H 1.0 1.60482 0.0375455 0.868053 Biso 1.0 H
O 1.0 1.62247 0.121716 0.951475 Biso 1.0 O
N 1.0 1.59518 0.312266 0.971095 Biso 1.0 N
N 1.0 1.46982 0.0887644 0.809626 Biso 1.0 N
N 1.0 1.47261 0.184024 0.900155 Biso 1.0 N
N 1.0 1.68831 0.404688 0.973336 Biso 1.0 N
C 1.0 1.99055 0.626314 0.629444 Biso 1.0 C
C 1.0 1.91537 0.598165 0.602702 Biso 1.0 C
H 1.0 1.89357 0.545475 0.634125 Biso 1.0 H
O 1.0 1.87738 0.629055 0.549723 Biso 1.0 O
Zn 1.0 1.99693 0.752442 0.506723 Biso 1.0 Zn
N 1.0 1.91058 0.529684 0.818093 Biso 1.0 N
C 1.0 1.37862 0.622572 0.010076 Biso 1.0 C
C 1.0 1.40829 0.595791 0.084916 Biso 1.0 C
H 1.0 1.4619 0.626568 0.105295 Biso 1.0 H
O 1.0 1.37769 0.543795 0.124361 Biso 1.0 O
C 1.0 1.12599 0.491274 0.128415 Biso 1.0 C
C 1.0 1.36652 0.304257 0.093817 Biso 1.0 C
C 1.0 1.1381 0.597484 0.196493 Biso 1.0 C
C 1.0 1.09829 0.365686 0.31181 Biso 1.0 C
C 1.0 1.0974 0.308291 0.369519 Biso 1.0 C
C 1.0 1.19688 0.595039 0.140384 Biso 1.0 C
C 1.0 1.30945 0.361885 0.094927 Biso 1.0 C
C 1.0 1.09572 0.41717 0.10117 Biso 1.0 C
H 1.0 1.3788 0.25847 0.135861 Biso 1.0 H
H 1.0 1.126 0.640665 0.241281 Biso 1.0 H
H 1.0 1.14272 0.379717 0.268762 Biso 1.0 H
H 1.0 1.14083 0.264512 0.383765 Biso 1.0 H
H 1.0 1.24307 0.636344 0.127899 Biso 1.0 H
H 1.0 1.2648 0.374227 0.138176 Biso 1.0 H
H 1.0 1.04165 0.397452 0.131798 Biso 1.0 H
O 1.0 1.12598 0.377769 0.048937 Biso 1.0 O
N 1.0 1.0937 0.532338 0.188587 Biso 1.0 N
N 1.0 1.03121 0.407341 0.317622 Biso 1.0 N
N 1.0 1.18902 0.528425 0.098437 Biso 1.0 N
N 1.0 1.31683 0.405363 0.028967 Biso 1.0 N
C 1.0 1.8789 0.509877 0.129596 Biso 1.0 C
C 1.0 1.86877 0.404708 0.199426 Biso 1.0 C
C 1.0 1.6373 0.691279 0.094458 Biso 1.0 C
C 1.0 1.69444 0.633722 0.095703 Biso 1.0 C
C 1.0 1.81038 0.404702 0.142738 Biso 1.0 C
C 1.0 1.90827 0.583701 0.10044 Biso 1.0 C
H 1.0 1.88219 0.36176 0.244122 Biso 1.0 H
H 1.0 1.62478 0.737095 0.136406 Biso 1.0 H
H 1.0 1.73897 0.621485 0.13911 Biso 1.0 H
H 1.0 1.76525 0.362129 0.130733 Biso 1.0 H
H 1.0 1.96164 0.605228 0.131063 Biso 1.0 H
O 1.0 1.8781 0.620769 0.0465 Biso 1.0 O
N 1.0 1.91165 0.470948 0.190959 Biso 1.0 N
N 1.0 1.59506 0.683359 0.027569 Biso 1.0 N
N 1.0 1.68738 0.590224 0.029698 Biso 1.0 N
N 1.0 1.8171 0.470643 0.099523 Biso 1.0 N
C 1.0 1.50977 0.872794 0.121464 Biso 1.0 C
C 1.0 1.63262 0.901894 0.303301 Biso 1.0 C
C 1.0 1.40143 0.862897 0.186592 Biso 1.0 C
C 1.0 1.40475 0.803506 0.13117 Biso 1.0 C
C 1.0 1.68973 0.902139 0.36127 Biso 1.0 C
C 1.0 1.58457 0.902712 0.09544 Biso 1.0 C
Zn 1.0 1.49642 0.99608 0.247219 Biso 1.0 Zn
H 1.0 1.61887 0.857999 0.259673 Biso 1.0 H
H 1.0 1.35701 0.876199 0.229835 Biso 1.0 H
H 1.0 1.3623 0.75872 0.117258 Biso 1.0 H
H 1.0 1.73427 0.859329 0.374708 Biso 1.0 H
H 1.0 1.60371 0.956956 0.126061 Biso 1.0 H
O 1.0 1.62494 0.872156 0.044167 Biso 1.0 O
N 1.0 1.59097 0.968924 0.309432 Biso 1.0 N
N 1.0 1.46734 0.906383 0.179946 Biso 1.0 N
N 1.0 1.47286 0.80982 0.091102 Biso 1.0 N
N 1.0 1.68295 0.969111 0.403139 Biso 1.0 N
C 1.0 1.49228 0.87487 0.872217 Biso 1.0 C
C 1.0 1.36345 0.90232 0.688647 Biso 1.0 C
C 1.0 1.36564 0.691611 0.9044 Biso 1.0 C
C 1.0 1.59808 0.864196 0.803038 Biso 1.0 C
C 1.0 1.59743 0.806016 0.859771 Biso 1.0 C
C 1.0 1.30825 0.634285 0.905452 Biso 1.0 C
C 1.0 1.30561 0.902937 0.631365 Biso 1.0 C
C 1.0 1.41799 0.90439 0.899997 Biso 1.0 C
Zn 1.0 1.5005 0.996013 0.744006 Biso 1.0 Zn
Zn 1.0 1.50368 0.748495 0.995158 Biso 1.0 Zn
H 1.0 1.37798 0.858042 0.731648 Biso 1.0 H
H 1.0 1.37738 0.736606 0.861386 Biso 1.0 H
H 1.0 1.64061 0.876736 0.757702 Biso 1.0 H
H 1.0 1.6398 0.760803 0.872192 Biso 1.0 H
H 1.0 1.26216 0.622113 0.863657 Biso 1.0 H
H 1.0 1.26187 0.859321 0.617592 Biso 1.0 H
H 1.0 1.39723 0.957713 0.868798 Biso 1.0 H
O 1.0 1.37954 0.874484 0.95314 Biso 1.0 O
N 1.0 1.40492 0.969425 0.682446 Biso 1.0 N
N 1.0 1.40962 0.683994 0.970025 Biso 1.0 N
N 1.0 1.53205 0.907283 0.811235 Biso 1.0 N
N 1.0 1.53107 0.812972 0.90241 Biso 1.0 N
N 1.0 1.31681 0.59143 0.971841 Biso 1.0 N
N 1.0 1.31144 0.970397 0.589867 Biso 1.0 N
C 1.0 1.62573 0.990915 0.620971 Biso 1.0 C
C 1.0 1.59866 0.916123 0.592116 Biso 1.0 C
H 1.0 1.63099 0.893601 0.540111 Biso 1.0 H
O 1.0 1.54441 0.879294 0.62177 Biso 1.0 O
C 1.0 1.37788 0.374334 0.988683 Biso 1.0 C
C 1.0 1.40455 0.403562 0.913637 Biso 1.0 C
H 1.0 1.37406 0.457302 0.893234 Biso 1.0 H
O 1.0 1.45623 0.372502 0.874077 Biso 1.0 O
C 1.0 1.62684 0.621741 0.989239 Biso 1.0 C
C 1.0 1.60057 0.592633 0.913989 Biso 1.0 C
H 1.0 1.63125 0.538936 0.893726 Biso 1.0 H
O 1.0 1.54915 0.623691 0.874146 Biso 1.0 O
C 1.0 1.37212 0.990142 0.371447 Biso 1.0 C
C 1.0 1.39923 0.915598 0.400834 Biso 1.0 C
H 1.0 1.3677 0.89424 0.453891 Biso 1.0 H
O 1.0 1.45247 0.877697 0.370726 Biso 1.0 O
C 1.0 1.87258 0.877107 0.489833 Biso 1.0 C
C 1.0 1.86106 0.811491 0.59788 Biso 1.0 C
C 1.0 1.90325 0.636717 0.311291 Biso 1.0 C
C 1.0 1.90323 0.695148 0.367898 Biso 1.0 C
C 1.0 1.80378 0.868884 0.596037 Biso 1.0 C
C 1.0 1.9018 0.902303 0.41416 Biso 1.0 C
H 1.0 1.87358 0.767951 0.642161 Biso 1.0 H
H 1.0 1.85974 0.622333 0.267352 Biso 1.0 H
H 1.0 1.85915 0.738563 0.381121 Biso 1.0 H
H 1.0 1.75927 0.883029 0.638986 Biso 1.0 H
H 1.0 1.95515 0.870934 0.393912 Biso 1.0 H
O 1.0 1.87117 0.95375 0.374171 Biso 1.0 O
N 1.0 1.90393 0.817192 0.531286 Biso 1.0 N
N 1.0 1.97028 0.594979 0.31873 Biso 1.0 N
N 1.0 1.9702 0.689532 0.410099 Biso 1.0 N
N 1.0 1.81116 0.909691 0.528047 Biso 1.0 N
C 1.0 1.87727 0.488574 0.877701 Biso 1.0 C
C 1.0 1.86731 0.595814 0.81115 Biso 1.0 C
C 1.0 1.80833 0.593659 0.867277 Biso 1.0 C
C 1.0 1.90734 0.414422 0.905381 Biso 1.0 C
H 1.0 1.88108 0.640297 0.768094 Biso 1.0 H
H 1.0 1.7639 0.636527 0.881037 Biso 1.0 H
H 1.0 1.96129 0.39426 0.874865 Biso 1.0 H
O 1.0 1.87714 0.375831 0.9582 Biso 1.0 O
N 1.0 1.81477 0.526247 0.908368 Biso 1.0 N
C 1.0 1.12418 0.87536 0.511898 Biso 1.0 C
C 1.0 1.13249 0.807956 0.404892 Biso 1.0 C
C 1.0 1.19033 0.864899 0.404171 Biso 1.0 C
C 1.0 1.09787 0.904282 0.587356 Biso 1.0 C
H 1.0 1.11827 0.764242 0.361169 Biso 1.0 H
H 1.0 1.23329 0.878394 0.359475 Biso 1.0 H
H 1.0 1.12976 0.956756 0.608851 Biso 1.0 H
O 1.0 1.04481 0.874306 0.625713 Biso 1.0 O
N 1.0 1.18477 0.906891 0.471436 Biso 1.0 N
C 1.0 1.99071 0.375332 0.378053 Biso 1.0 C
C 1.0 1.91547 0.404204 0.404117 Biso 1.0 C
H 1.0 1.89426 0.456629 0.371813 Biso 1.0 H
O 1.0 1.87693 0.374323 0.457194 Biso 1.0 O
Zn 1.0 1.25217 0.499666 1.00508 Biso 1.0 Zn
C 1.0 1.00878 0.37586 1.62855 Biso 1.0 C
C 1.0 1.08355 0.402573 1.59925 Biso 1.0 C
H 1.0 1.10504 0.370791 1.54643 Biso 1.0 H
O 1.0 1.12158 0.45575 1.62931 Biso 1.0 O
C 1.0 1.12722 0.509656 1.87909 Biso 1.0 C
C 1.0 1.13704 0.403075 1.81124 Biso 1.0 C
C 1.0 1.09745 0.636271 1.69675 Biso 1.0 C
C 1.0 1.09706 0.693627 1.6391 Biso 1.0 C
C 1.0 1.19583 0.404451 1.86745 Biso 1.0 C
C 1.0 1.09739 0.584018 1.90632 Biso 1.0 C
Zn 1.0 1.004 0.499807 1.75268 Biso 1.0 Zn
H 1.0 1.12387 0.35992 1.76672 Biso 1.0 H
H 1.0 1.14139 0.622423 1.74034 Biso 1.0 H
H 1.0 1.13982 0.738313 1.62603 Biso 1.0 H
H 1.0 1.24031 0.36144 1.88069 Biso 1.0 H
H 1.0 1.0435 0.603934 1.87544 Biso 1.0 H
O 1.0 1.12754 0.623272 1.95866 Biso 1.0 O
N 1.0 1.09398 0.46909 1.81909 Biso 1.0 N
N 1.0 1.03044 0.594534 1.6904 Biso 1.0 N
N 1.0 1.03003 0.686981 1.59715 Biso 1.0 N
N 1.0 1.18956 0.471455 1.90926 Biso 1.0 N
N 1.0 1.0298 0.314669 1.41079 Biso 1.0 N
N 1.0 1.09151 0.188846 1.53012 Biso 1.0 N
Zn 1.0 1.00447 0.502685 1.25606 Biso 1.0 Zn
C 1.0 1.00979 0.628258 1.37919 Biso 1.0 C
C 1.0 1.0845 0.601249 1.40857 Biso 1.0 C
H 1.0 1.10655 0.633537 1.46081 Biso 1.0 H
O 1.0 1.12166 0.547132 1.37918 Biso 1.0 O
N 1.0 1.09119 0.814772 1.47266 Biso 1.0 N
C 1.0 1.62224 0.00870596 1.37054 Biso 1.0 C
C 1.0 1.59399 0.0838587 1.39707 Biso 1.0 C
H 1.0 1.54177 0.105819 1.36489 Biso 1.0 H
O 1.0 1.62426 0.121718 1.45047 Biso 1.0 O
C 1.0 1.62606 0.372836 1.01154 Biso 1.0 C
C 1.0 1.59677 0.399163 1.0867 Biso 1.0 C
H 1.0 1.54276 0.368855 1.10678 Biso 1.0 H
O 1.0 1.62807 0.450311 1.12667 Biso 1.0 O
C 1.0 1.48831 0.12296 1.12211 Biso 1.0 C
C 1.0 1.59443 0.131965 1.19078 Biso 1.0 C
C 1.0 1.59437 0.190259 1.13396 Biso 1.0 C
C 1.0 1.41406 0.093689 1.09362 Biso 1.0 C
H 1.0 1.63783 0.118036 1.23492 Biso 1.0 H
H 1.0 1.63819 0.233922 1.12072 Biso 1.0 H
H 1.0 1.39274 0.0404589 1.12456 Biso 1.0 H
O 1.0 1.37655 0.123708 1.03993 Biso 1.0 O
N 1.0 1.52768 0.0897249 1.18294 Biso 1.0 N
N 1.0 1.52766 0.184399 1.09149 Biso 1.0 N
Zn 1.0 1.74838 0.00271729 1.49283 Biso 1.0 Zn
N 1.0 1.40902 0.312116 1.02707 Biso 1.0 N
Zn 1.0 1.75295 0.496408 1.00537 Biso 1.0 Zn
N 1.0 1.40402 0.0294015 1.31025 Biso 1.0 N
C 1.0 1.37206 0.00964939 1.62212 Biso 1.0 C
C 1.0 1.40073 0.0846465 1.5954 Biso 1.0 C
H 1.0 1.45362 0.105956 1.62693 Biso 1.0 H
O 1.0 1.37021 0.122824 1.54242 Biso 1.0 O
C 1.0 1.87388 0.125293 1.50716 Biso 1.0 C
C 1.0 1.8641 0.194919 1.40158 Biso 1.0 C
C 1.0 1.63415 0.0976594 1.68832 Biso 1.0 C
C 1.0 1.90285 0.366019 1.69728 Biso 1.0 C
C 1.0 1.90267 0.308085 1.64021 Biso 1.0 C
C 1.0 1.69247 0.0974068 1.63149 Biso 1.0 C
C 1.0 1.80645 0.137932 1.40031 Biso 1.0 C
C 1.0 1.89995 0.0960232 1.58242 Biso 1.0 C
Zn 1.0 1.99533 0.250953 1.50404 Biso 1.0 Zn
H 1.0 1.87702 0.240518 1.35953 Biso 1.0 H
H 1.0 1.61996 0.141289 1.73215 Biso 1.0 H
H 1.0 1.85977 0.379563 1.74187 Biso 1.0 H
H 1.0 1.85965 0.263541 1.62767 Biso 1.0 H
H 1.0 1.73589 0.141317 1.6178 Biso 1.0 H
H 1.0 1.76194 0.126057 1.35679 Biso 1.0 H
H 1.0 1.86824 0.0432176 1.60336 Biso 1.0 H
O 1.0 1.95244 0.126135 1.62157 Biso 1.0 O
N 1.0 1.90603 0.186663 1.46865 Biso 1.0 N
N 1.0 1.59233 0.0306786 1.68133 Biso 1.0 N
N 1.0 1.96963 0.408187 1.68973 Biso 1.0 N
N 1.0 1.96906 0.314796 1.59751 Biso 1.0 N
N 1.0 1.68662 0.0303281 1.58968 Biso 1.0 N
N 1.0 1.81303 0.0946995 1.46653 Biso 1.0 N
C 1.0 1.12152 0.126741 1.49102 Biso 1.0 C
C 1.0 1.36146 0.0958935 1.30267 Biso 1.0 C
C 1.0 1.1351 0.196301 1.59617 Biso 1.0 C
C 1.0 1.19168 0.138176 1.59608 Biso 1.0 C
C 1.0 1.30345 0.0957842 1.3597 Biso 1.0 C
C 1.0 1.09163 0.0985698 1.41672 Biso 1.0 C
Zn 1.0 1.24657 0.00395824 1.49653 Biso 1.0 Zn
H 1.0 1.3748 0.138965 1.25804 Biso 1.0 H
H 1.0 1.12318 0.241008 1.63951 Biso 1.0 H
H 1.0 1.23737 0.125871 1.63826 Biso 1.0 H
H 1.0 1.25858 0.1385 1.37215 Biso 1.0 H
H 1.0 1.03898 0.129891 1.39482 Biso 1.0 H
O 1.0 1.12121 0.0444622 1.37948 Biso 1.0 O
N 1.0 1.18273 0.0947548 1.53012 Biso 1.0 N
N 1.0 1.31046 0.0295191 1.40248 Biso 1.0 N
C 1.0 1.51035 0.121388 1.87003 Biso 1.0 C
C 1.0 1.6389 0.305206 1.9052 Biso 1.0 C
C 1.0 1.40413 0.132659 1.80184 Biso 1.0 C
C 1.0 1.40601 0.191454 1.858 Biso 1.0 C
C 1.0 1.6964 0.362398 1.9065 Biso 1.0 C
C 1.0 1.58429 0.0913992 1.89836 Biso 1.0 C
Zn 1.0 1.50066 0.247098 1.99432 Biso 1.0 Zn
H 1.0 1.62685 0.260661 1.8618 Biso 1.0 H
H 1.0 1.36019 0.119567 1.75797 Biso 1.0 H
H 1.0 1.3642 0.23719 1.87043 Biso 1.0 H
H 1.0 1.74228 0.374902 1.86457 Biso 1.0 H
H 1.0 1.60482 0.0375455 1.86805 Biso 1.0 H
O 1.0 1.62247 0.121716 1.95148 Biso 1.0 O
N 1.0 1.59518 0.312266 1.97109 Biso 1.0 N
N 1.0 1.46982 0.0887644 1.80963 Biso 1.0 N
N 1.0 1.47261 0.184024 1.90015 Biso 1.0 N
N 1.0 1.68831 0.404688 1.97334 Biso 1.0 N
C 1.0 1.99055 0.626314 1.62944 Biso 1.0 C
C 1.0 1.91537 0.598165 1.6027 Biso 1.0 C
H 1.0 1.89357 0.545475 1.63412 Biso 1.0 H
O 1.0 1.87738 0.629055 1.54972 Biso 1.0 O
Zn 1.0 1.99693 0.752442 1.50672 Biso 1.0 Zn
N 1.0 1.91058 0.529684 1.81809 Biso 1.0 N
C 1.0 1.37862 0.622572 1.01008 Biso 1.0 C
C 1.0 1.40829 0.595791 1.08492 Biso 1.0 C
H 1.0 1.4619 0.626568 1.10529 Biso 1.0 H
O 1.0 1.37769 0.543795 1.12436 Biso 1.0 O
C 1.0 1.12599 0.491274 1.12841 Biso 1.0 C
C 1.0 1.36652 0.304257 1.09382 Biso 1.0 C
C 1.0 1.1381 0.597484 1.19649 Biso 1.0 C
C 1.0 1.09829 0.365686 1.31181 Biso 1.0 C
C 1.0 1.0974 0.308291 1.36952 Biso 1.0 C
C 1.0 1.19688 0.595039 1.14038 Biso 1.0 C
C 1.0 1.30945 0.361885 1.09493 Biso 1.0 C
C 1.0 1.09572 0.41717 1.10117 Biso 1.0 C
H 1.0 1.3788 0.25847 1.13586 Biso 1.0 H
H 1.0 1.126 0.640665 1.24128 Biso 1.0 H
H 1.0 1.14272 0.379717 1.26876 Biso 1.0 H
H 1.0 1.14083 0.264512 1.38376 Biso 1.0 H
H 1.0 1.24307 0.636344 1.1279 Biso 1.0 H
H 1.0 1.2648 0.374227 1.13818 Biso 1.0 H
H 1.0 1.04165 0.397452 1.1318 Biso 1.0 H
O 1.0 1.12598 0.377769 1.04894 Biso 1.0 O
N 1.0 1.0937 0.532338 1.18859 Biso 1.0 N
N 1.0 1.03121 0.407341 1.31762 Biso 1.0 N
N 1.0 1.18902 0.528425 1.09844 Biso 1.0 N
N 1.0 1.31683 0.405363 1.02897 Biso 1.0 N
C 1.0 1.8789 0.509877 1.1296 Biso 1.0 C
C 1.0 1.86877 0.404708 1.19943 Biso 1.0 C
C 1.0 1.6373 0.691279 1.09446 Biso 1.0 C
C 1.0 1.69444 0.633722 1.0957 Biso 1.0 C
C 1.0 1.81038 0.404702 1.14274 Biso 1.0 C
C 1.0 1.90827 0.583701 1.10044 Biso 1.0 C
H 1.0 1.88219 0.36176 1.24412 Biso 1.0 H
H 1.0 1.62478 0.737095 1.13641 Biso 1.0 H
H 1.0 1.73897 0.621485 1.13911 Biso 1.0 H
H 1.0 1.76525 0.362129 1.13073 Biso 1.0 H
H 1.0 1.96164 0.605228 1.13106 Biso 1.0 H
O 1.0 1.8781 0.620769 1.0465 Biso 1.0 O
N 1.0 1.91165 0.470948 1.19096 Biso 1.0 N
N 1.0 1.59506 0.683359 1.02757 Biso 1.0 N
N 1.0 1.68738 0.590224 1.0297 Biso 1.0 N
N 1.0 1.8171 0.470643 1.09952 Biso 1.0 N
C 1.0 1.50977 0.872794 1.12146 Biso 1.0 C
C 1.0 1.63262 0.901894 1.3033 Biso 1.0 C
C 1.0 1.40143 0.862897 1.18659 Biso 1.0 C
C 1.0 1.40475 0.803506 1.13117 Biso 1.0 C
C 1.0 1.68973 0.902139 1.36127 Biso 1.0 C
C 1.0 1.58457 0.902712 1.09544 Biso 1.0 C
Zn 1.0 1.49642 0.99608 1.24722 Biso 1.0 Zn
H 1.0 1.61887 0.857999 1.25967 Biso 1.0 H
H 1.0 1.35701 0.876199 1.22984 Biso 1.0 H
H 1.0 1.3623 0.75872 1.11726 Biso 1.0 H
H 1.0 1.73427 0.859329 1.37471 Biso 1.0 H
H 1.0 1.60371 0.956956 1.12606 Biso 1.0 H
O 1.0 1.62494 0.872156 1.04417 Biso 1.0 O
N 1.0 1.59097 0.968924 1.30943 Biso 1.0 N
N 1.0 1.46734 0.906383 1.17995 Biso 1.0 N
N 1.0 1.47286 0.80982 1.0911 Biso 1.0 N
N 1.0 1.68295 0.969111 1.40314 Biso 1.0 N
C 1.0 1.49228 0.87487 1.87222 Biso 1.0 C
C 1.0 1.36345 0.90232 1.68865 Biso 1.0 C
C 1.0 1.36564 0.691611 1.9044 Biso 1.0 C
C 1.0 1.59808 0.864196 1.80304 Biso 1.0 C
C 1.0 1.59743 0.806016 1.85977 Biso 1.0 C
C 1.0 1.30825 0.634285 1.90545 Biso 1.0 C
C 1.0 1.30561 0.902937 1.63136 Biso 1.0 C
C 1.0 1.41799 0.90439 1.9 Biso 1.0 C
Zn 1.0 1.5005 0.996013 1.74401 Biso 1.0 Zn
Zn 1.0 1.50368 0.748495 1.99516 Biso 1.0 Zn
H 1.0 1.37798 0.858042 1.73165 Biso 1.0 H
H 1.0 1.37738 0.736606 1.86139 Biso 1.0 H
H 1.0 1.64061 0.876736 1.7577 Biso 1.0 H
H 1.0 1.6398 0.760803 1.87219 Biso 1.0 H
H 1.0 1.26216 0.622113 1.86366 Biso 1.0 H
H 1.0 1.26187 0.859321 1.61759 Biso 1.0 H
H 1.0 1.39723 0.957713 1.8688 Biso 1.0 H
O 1.0 1.37954 0.874484 1.95314 Biso 1.0 O
N 1.0 1.40492 0.969425 1.68245 Biso 1.0 N
N 1.0 1.40962 0.683994 1.97003 Biso 1.0 N
N 1.0 1.53205 0.907283 1.81123 Biso 1.0 N
N 1.0 1.53107 0.812972 1.90241 Biso 1.0 N
N 1.0 1.31681 0.59143 1.97184 Biso 1.0 N
N 1.0 1.31144 0.970397 1.58987 Biso 1.0 N
C 1.0 1.62573 0.990915 1.62097 Biso 1.0 C
C 1.0 1.59866 0.916123 1.59212 Biso 1.0 C
H 1.0 1.63099 0.893601 1.54011 Biso 1.0 H
O 1.0 1.54441 0.879294 1.62177 Biso 1.0 O
C 1.0 1.37788 0.374334 1.98868 Biso 1.0 C
C 1.0 1.40455 0.403562 1.91364 Biso 1.0 C
H 1.0 1.37406 0.457302 1.89323 Biso 1.0 H
O 1.0 1.45623 0.372502 1.87408 Biso 1.0 O
C 1.0 1.62684 0.621741 1.98924 Biso 1.0 C
C 1.0 1.60057 0.592633 1.91399 Biso 1.0 C
H 1.0 1.63125 0.538936 1.89373 Biso 1.0 H
O 1.0 1.54915 0.623691 1.87415 Biso 1.0 O
C 1.0 1.37212 0.990142 1.37145 Biso 1.0 C
C 1.0 1.39923 0.915598 1.40083 Biso 1.0 C
H 1.0 1.3677 0.89424 1.45389 Biso 1.0 H
O 1.0 1.45247 0.877697 1.37073 Biso 1.0 O
C 1.0 1.87258 0.877107 1.48983 Biso 1.0 C
C 1.0 1.86106 0.811491 1.59788 Biso 1.0 C
C 1.0 1.90325 0.636717 1.31129 Biso 1.0 C
C 1.0 1.90323 0.695148 1.3679 Biso 1.0 C
C 1.0 1.80378 0.868884 1.59604 Biso 1.0 C
C 1.0 1.9018 0.902303 1.41416 Biso 1.0 C
H 1.0 1.87358 0.767951 1.64216 Biso 1.0 H
H 1.0 1.85974 0.622333 1.26735 Biso 1.0 H
H 1.0 1.85915 0.738563 1.38112 Biso 1.0 H
H 1.0 1.75927 0.883029 1.63899 Biso 1.0 H
H 1.0 1.95515 0.870934 1.39391 Biso 1.0 H
O 1.0 1.87117 0.95375 1.37417 Biso 1.0 O
N 1.0 1.90393 0.817192 1.53129 Biso 1.0 N
N 1.0 1.97028 0.594979 1.31873 Biso 1.0 N
N 1.0 1.9702 0.689532 1.4101 Biso 1.0 N
N 1.0 1.81116 0.909691 1.52805 Biso 1.0 N
C 1.0 1.87727 0.488574 1.8777 Biso 1.0 C
C 1.0 1.86731 0.595814 1.81115 Biso 1.0 C
C 1.0 1.80833 0.593659 1.86728 Biso 1.0 C
C 1.0 1.90734 0.414422 1.90538 Biso 1.0 C
H 1.0 1.88108 0.640297 1.76809 Biso 1.0 H
H 1.0 1.7639 0.636527 1.88104 Biso 1.0 H
H 1.0 1.96129 0.39426 1.87486 Biso 1.0 H
O 1.0 1.87714 0.375831 1.9582 Biso 1.0 O
N 1.0 1.81477 0.526247 1.90837 Biso 1.0 N
C 1.0 1.12418 0.87536 1.5119 Biso 1.0 C
C 1.0 1.13249 0.807956 1.40489 Biso 1.0 C
C 1.0 1.19033 0.864899 1.40417 Biso 1.0 C
C 1.0 1.09787 0.904282 1.58736 Biso 1.0 C
H 1.0 1.11827 0.764242 1.36117 Biso 1.0 H
H 1.0 1.23329 0.878394 1.35948 Biso 1.0 H
H 1.0 1.12976 0.956756 1.60885 Biso 1.0 H
O 1.0 1.04481 0.874306 1.62571 Biso 1.0 O
N 1.0 1.18477 0.906891 1.47144 Biso 1.0 N
C 1.0 1.99071 0.375332 1.37805 Biso 1.0 C
C 1.0 1.91547 0.404204 1.40412 Biso 1.0 C
H 1.0 1.89426 0.456629 1.37181 Biso 1.0 H
O 1.0 1.87693 0.374323 1.45719 Biso 1.0 O
Zn 1.0 1.25217 1.49967 0.00508497 Biso 1.0 Zn
C 1.0 1.00878 1.37586 0.628548 Biso 1.0 C
C 1.0 1.08355 1.40257 0.599254 Biso 1.0 C
H 1.0 1.10504 1.37079 0.546428 Biso 1.0 H
O 1.0 1.12158 1.45575 0.629314 Biso 1.0 O
C 1.0 1.12722 1.50966 0.879092 Biso 1.0 C
C 1.0 1.13704 1.40307 0.811237 Biso 1.0 C
C 1.0 1.09745 1.63627 0.69675 Biso 1.0 C
C 1.0 1.09706 1.69363 0.639103 Biso 1.0 C
C 1.0 1.19583 1.40445 0.867449 Biso 1.0 C
C 1.0 1.09739 1.58402 0.906322 Biso 1.0 C
Zn 1.0 1.004 1.49981 0.752684 Biso 1.0 Zn
H 1.0 1.12387 1.35992 0.766717 Biso 1.0 H
H 1.0 1.14139 1.62242 0.740341 Biso 1.0 H
H 1.0 1.13982 1.73831 0.626035 Biso 1.0 H
H 1.0 1.24031 1.36144 0.880688 Biso 1.0 H
H 1.0 1.0435 1.60393 0.87544 Biso 1.0 H
O 1.0 1.12754 1.62327 0.958659 Biso 1.0 O
N 1.0 1.09398 1.46909 0.819093 Biso 1.0 N
N 1.0 1.03044 1.59453 0.6904 Biso 1.0 N
N 1.0 1.03003 1.68698 0.597149 Biso 1.0 N
N 1.0 1.18956 1.47145 0.909261 Biso 1.0 N
N 1.0 1.0298 1.31467 0.410791 Biso 1.0 N
N 1.0 1.09151 1.18885 0.530116 Biso 1.0 N
Zn 1.0 1.00447 1.50268 0.25606 Biso 1.0 Zn
C 1.0 1.00979 1.62826 0.379191 Biso 1.0 C
C 1.0 1.0845 1.60125 0.408569 Biso 1.0 C
H 1.0 1.10655 1.63354 0.460813 Biso 1.0 H
O 1.0 1.12166 1.54713 0.379184 Biso 1.0 O
N 1.0 1.09119 1.81477 0.472656 Biso 1.0 N
C 1.0 1.62224 1.00871 0.370544 Biso 1.0 C
C 1.0 1.59399 1.08386 0.397069 Biso 1.0 C
H 1.0 1.54177 1.10582 0.364888 Biso 1.0 H
O 1.0 1.62426 1.12172 0.450472 Biso 1.0 O
C 1.0 1.62606 1.37284 0.011541 Biso 1.0 C
C 1.0 1.59677 1.39916 0.086703 Biso 1.0 C
H 1.0 1.54276 1.36886 0.10678 Biso 1.0 H
O 1.0 1.62807 1.45031 0.126671 Biso 1.0 O
C 1.0 1.48831 1.12296 0.12211 Biso 1.0 C
C 1.0 1.59443 1.13196 0.190776 Biso 1.0 C
C 1.0 1.59437 1.19026 0.133958 Biso 1.0 C
C 1.0 1.41406 1.09369 0.093624 Biso 1.0 C
H 1.0 1.63783 1.11804 0.234917 Biso 1.0 H
H 1.0 1.63819 1.23392 0.12072 Biso 1.0 H
H 1.0 1.39274 1.04046 0.124562 Biso 1.0 H
O 1.0 1.37655 1.12371 0.039935 Biso 1.0 O
N 1.0 1.52768 1.08972 0.182941 Biso 1.0 N
N 1.0 1.52766 1.1844 0.091494 Biso 1.0 N
Zn 1.0 1.74838 1.00272 0.492828 Biso 1.0 Zn
N 1.0 1.40902 1.31212 0.027067 Biso 1.0 N
Zn 1.0 1.75295 1.49641 0.00536899 Biso 1.0 Zn
N 1.0 1.40402 1.0294 0.310254 Biso 1.0 N
C 1.0 1.37206 1.00965 0.622119 Biso 1.0 C
C 1.0 1.40073 1.08465 0.595404 Biso 1.0 C
H 1.0 1.45362 1.10596 0.626928 Biso 1.0 H
O 1.0 1.37021 1.12282 0.542419 Biso 1.0 O
C 1.0 1.87388 1.12529 0.507156 Biso 1.0 C
C 1.0 1.8641 1.19492 0.401576 Biso 1.0 C
C 1.0 1.63415 1.09766 0.688325 Biso 1.0 C
C 1.0 1.90285 1.36602 0.697278 Biso 1.0 C
C 1.0 1.90267 1.30809 0.640212 Biso 1.0 C
C 1.0 1.69247 1.09741 0.631492 Biso 1.0 C
C 1.0 1.80645 1.13793 0.400308 Biso 1.0 C
C 1.0 1.89995 1.09602 0.582422 Biso 1.0 C
Zn 1.0 1.99533 1.25095 0.504037 Biso 1.0 Zn
H 1.0 1.87702 1.24052 0.359526 Biso 1.0 H
H 1.0 1.61996 1.14129 0.732155 Biso 1.0 H
H 1.0 1.85977 1.37956 0.741873 Biso 1.0 H
H 1.0 1.85965 1.26354 0.627669 Biso 1.0 H
H 1.0 1.73589 1.14132 0.6178 Biso 1.0 H
H 1.0 1.76194 1.12606 0.356792 Biso 1.0 H
H 1.0 1.86824 1.04322 0.603364 Biso 1.0 H
O 1.0 1.95244 1.12614 0.621572 Biso 1.0 O
N 1.0 1.90603 1.18666 0.468647 Biso 1.0 N
N 1.0 1.59233 1.03068 0.68133 Biso 1.0 N
N 1.0 1.96963 1.40819 0.689734 Biso 1.0 N
N 1.0 1.96906 1.3148 0.597514 Biso 1.0 N
N 1.0 1.68662 1.03033 0.589682 Biso 1.0 N
N 1.0 1.81303 1.0947 0.466534 Biso 1.0 N
C 1.0 1.12152 1.12674 0.491024 Biso 1.0 C
C 1.0 1.36146 1.09589 0.302667 Biso 1.0 C
C 1.0 1.1351 1.1963 0.596172 Biso 1.0 C
C 1.0 1.19168 1.13818 0.596084 Biso 1.0 C
C 1.0 1.30345 1.09578 0.359696 Biso 1.0 C
C 1.0 1.09163 1.09857 0.416717 Biso 1.0 C
Zn 1.0 1.24657 1.00396 0.496535 Biso 1.0 Zn
H 1.0 1.3748 1.13897 0.25804 Biso 1.0 H
H 1.0 1.12318 1.24101 0.639512 Biso 1.0 H
H 1.0 1.23737 1.12587 0.638264 Biso 1.0 H
H 1.0 1.25858 1.1385 0.372149 Biso 1.0 H
H 1.0 1.03898 1.12989 0.394819 Biso 1.0 H
O 1.0 1.12121 1.04446 0.37948 Biso 1.0 O
N 1.0 1.18273 1.09475 0.530123 Biso 1.0 N
N 1.0 1.31046 1.02952 0.402483 Biso 1.0 N
C 1.0 1.51035 1.12139 0.870027 Biso 1.0 C
C 1.0 1.6389 1.30521 0.905197 Biso 1.0 C
C 1.0 1.40413 1.13266 0.80184 Biso 1.0 C
C 1.0 1.40601 1.19145 0.858 Biso 1.0 C
C 1.0 1.6964 1.3624 0.906501 Biso 1.0 C
C 1.0 1.58429 1.0914 0.898358 Biso 1.0 C
Zn 1.0 1.50066 1.2471 0.994322 Biso 1.0 Zn
H 1.0 1.62685 1.26066 0.861801 Biso 1.0 H
H 1.0 1.36019 1.11957 0.757974 Biso 1.0 H
H 1.0 1.3642 1.23719 0.870433 Biso 1.0 H
H 1.0 1.74228 1.3749 0.86457 Biso 1.0 H
H 1.0 1.60482 1.03755 0.868053 Biso 1.0 H
O 1.0 1.62247 1.12172 0.951475 Biso 1.0 O
N 1.0 1.59518 1.31227 0.971095 Biso 1.0 N
N 1.0 1.46982 1.08876 0.809626 Biso 1.0 N
N 1.0 1.47261 1.18402 0.900155 Biso 1.0 N
N 1.0 1.68831 1.40469 0.973336 Biso 1.0 N
C 1.0 1.99055 1.62631 0.629444 Biso 1.0 C
C 1.0 1.91537 1.59817 0.602702 Biso 1.0 C
H 1.0 1.89357 1.54548 0.634125 Biso 1.0 H
O 1.0 1.87738 1.62905 0.549723 Biso 1.0 O
Zn 1.0 1.99693 1.75244 0.506723 Biso 1.0 Zn
N 1.0 1.91058 1.52968 0.818093 Biso 1.0 N
C 1.0 1.37862 1.62257 0.010076 Biso 1.0 C
C 1.0 1.40829 1.59579 0.084916 Biso 1.0 C
H 1.0 1.4619 1.62657 0.105295 Biso 1.0 H
O 1.0 1.37769 1.54379 0.124361 Biso 1.0 O
C 1.0 1.12599 1.49127 0.128415 Biso 1.0 C
C 1.0 1.36652 1.30426 0.093817 Biso 1.0 C
C 1.0 1.1381 1.59748 0.196493 Biso 1.0 C
C 1.0 1.09829 1.36569 0.31181 Biso 1.0 C
C 1.0 1.0974 1.30829 0.369519 Biso 1.0 C
C 1.0 1.19688 1.59504 0.140384 Biso 1.0 C
C 1.0 1.30945 1.36189 0.094927 Biso 1.0 C
C 1.0 1.09572 1.41717 0.10117 Biso 1.0 C
H 1.0 1.3788 1.25847 0.135861 Biso 1.0 H
H 1.0 1.126 1.64066 0.241281 Biso 1.0 H
H 1.0 1.14272 1.37972 0.268762 Biso 1.0 H
H 1.0 1.14083 1.26451 0.383765 Biso 1.0 H
H 1.0 1.24307 1.63634 0.127899 Biso 1.0 H
H 1.0 1.2648 1.37423 0.138176 Biso 1.0 H
H 1.0 1.04165 1.39745 0.131798 Biso 1.0 H
O 1.0 1.12598 1.37777 0.048937 Biso 1.0 O
N 1.0 1.0937 1.53234 0.188587 Biso 1.0 N
N 1.0 1.03121 1.40734 0.317622 Biso 1.0 N
N 1.0 1.18902 1.52843 0.098437 Biso 1.0 N
N 1.0 1.31683 1.40536 0.028967 Biso 1.0 N
C 1.0 1.8789 1.50988 0.129596 Biso 1.0 C
C 1.0 1.86877 1.40471 0.199426 Biso 1.0 C
C 1.0 1.6373 1.69128 0.094458 Biso 1.0 C
C 1.0 1.69444 1.63372 0.095703 Biso 1.0 C
C 1.0 1.81038 1.4047 0.142738 Biso 1.0 C
C 1.0 1.90827 1.5837 0.10044 Biso 1.0 C
H 1.0 1.88219 1.36176 0.244122 Biso 1.0 H
H 1.0 1.62478 1.73709 0.136406 Biso 1.0 H
H 1.0 1.73897 1.62148 0.13911 Biso 1.0 H
H 1.0 1.76525 1.36213 0.130733 Biso 1.0 H
H 1.0 1.96164 1.60523 0.131063 Biso 1.0 H
O 1.0 1.8781 1.62077 0.0465 Biso 1.0 O
N 1.0 1.91165 1.47095 0.190959 Biso 1.0 N
N 1.0 1.59506 1.68336 0.027569 Biso 1.0 N
N 1.0 1.68738 1.59022 0.029698 Biso 1.0 N
N 1.0 1.8171 1.47064 0.099523 Biso 1.0 N
C 1.0 1.50977 1.87279 0.121464 Biso 1.0 C
C 1.0 1.63262 1.90189 0.303301 Biso 1.0 C
C 1.0 1.40143 1.8629 0.186592 Biso 1.0 C
C 1.0 1.40475 1.80351 0.13117 Biso 1.0 C
C 1.0 1.68973 1.90214 0.36127 Biso 1.0 C
C 1.0 1.58457 1.90271 0.09544 Biso 1.0 C
Zn 1.0 1.49642 1.99608 0.247219 Biso 1.0 Zn
H 1.0 1.61887 1.858 0.259673 Biso 1.0 H
H 1.0 1.35701 1.8762 0.229835 Biso 1.0 H
H 1.0 1.3623 1.75872 0.117258 Biso 1.0 H
H 1.0 1.73427 1.85933 0.374708 Biso 1.0 H
H 1.0 1.60371 1.95696 0.126061 Biso 1.0 H
O 1.0 1.62494 1.87216 0.044167 Biso 1.0 O
N 1.0 1.59097 1.96892 0.309432 Biso 1.0 N
N 1.0 1.46734 1.90638 0.179946 Biso 1.0 N
N 1.0 1.47286 1.80982 0.091102 Biso 1.0 N
N 1.0 1.68295 1.96911 0.403139 Biso 1.0 N
C 1.0 1.49228 1.87487 0.872217 Biso 1.0 C
C 1.0 1.36345 1.90232 0.688647 Biso 1.0 C
C 1.0 1.36564 1.69161 0.9044 Biso 1.0 C
C 1.0 1.59808 1.8642 0.803038 Biso 1.0 C
C 1.0 1.59743 1.80602 0.859771 Biso 1.0 C
C 1.0 1.30825 1.63428 0.905452 Biso 1.0 C
C 1.0 1.30561 1.90294 0.631365 Biso 1.0 C
C 1.0 1.41799 1.90439 0.899997 Biso 1.0 C
Zn 1.0 1.5005 1.99601 0.744006 Biso 1.0 Zn
Zn 1.0 1.50368 1.74849 0.995158 Biso 1.0 Zn
H 1.0 1.37798 1.85804 0.731648 Biso 1.0 H
H 1.0 1.37738 1.73661 0.861386 Biso 1.0 H
H 1.0 1.64061 1.87674 0.757702 Biso 1.0 H
H 1.0 1.6398 1.7608 0.872192 Biso 1.0 H
H 1.0 1.26216 1.62211 0.863657 Biso 1.0 H
H 1.0 1.26187 1.85932 0.617592 Biso 1.0 H
H 1.0 1.39723 1.95771 0.868798 Biso 1.0 H
O 1.0 1.37954 1.87448 0.95314 Biso 1.0 O
N 1.0 1.40492 1.96942 0.682446 Biso 1.0 N
N 1.0 1.40962 1.68399 0.970025 Biso 1.0 N
N 1.0 1.53205 1.90728 0.811235 Biso 1.0 N
N 1.0 1.53107 1.81297 0.90241 Biso 1.0 N
N 1.0 1.31681 1.59143 0.971841 Biso 1.0 N
N 1.0 1.31144 1.9704 0.589867 Biso 1.0 N
C 1.0 1.62573 1.99092 0.620971 Biso 1.0 C
C 1.0 1.59866 1.91612 0.592116 Biso 1.0 C
H 1.0 1.63099 1.8936 0.540111 Biso 1.0 H
O 1.0 1.54441 1.87929 0.62177 Biso 1.0 O
C 1.0 1.37788 1.37433 0.988683 Biso 1.0 C
C 1.0 1.40455 1.40356 0.913637 Biso 1.0 C
H 1.0 1.37406 1.4573 0.893234 Biso 1.0 H
O 1.0 1.45623 1.3725 0.874077 Biso 1.0 O
C 1.0 1.62684 1.62174 0.989239 Biso 1.0 C
C 1.0 1.60057 1.59263 0.913989 Biso 1.0 C
H 1.0 1.63125 1.53894 0.893726 Biso 1.0 H
O 1.0 1.54915 1.62369 0.874146 Biso 1.0 O
C 1.0 1.37212 1.99014 0.371447 Biso 1.0 C
C 1.0 1.39923 1.9156 0.400834 Biso 1.0 C
H 1.0 1.3677 1.89424 0.453891 Biso 1.0 H
O 1.0 1.45247 1.8777 0.370726 Biso 1.0 O
C 1.0 1.87258 1.87711 0.489833 Biso 1.0 C
C 1.0 1.86106 1.81149 0.59788 Biso 1.0 C
C 1.0 1.90325 1.63672 0.311291 Biso 1.0 C
C 1.0 1.90323 1.69515 0.367898 Biso 1.0 C
C 1.0 1.80378 1.86888 0.596037 Biso 1.0 C
C 1.0 1.9018 1.9023 0.41416 Biso 1.0 C
H 1.0 1.87358 1.76795 0.642161 Biso 1.0 H
H 1.0 1.85974 1.62233 0.267352 Biso 1.0 H
H 1.0 1.85915 1.73856 0.381121 Biso 1.0 H
H 1.0 1.75927 1.88303 0.638986 Biso 1.0 H
H 1.0 1.95515 1.87093 0.393912 Biso 1.0 H
O 1.0 1.87117 1.95375 0.374171 Biso 1.0 O
N 1.0 1.90393 1.81719 0.531286 Biso 1.0 N
N 1.0 1.97028 1.59498 0.31873 Biso 1.0 N
N 1.0 1.9702 1.68953 0.410099 Biso 1.0 N
N 1.0 1.81116 1.90969 0.528047 Biso 1.0 N
C 1.0 1.87727 1.48857 0.877701 Biso 1.0 C
C 1.0 1.86731 1.59581 0.81115 Biso 1.0 C
C 1.0 1.80833 1.59366 0.867277 Biso 1.0 C
C 1.0 1.90734 1.41442 0.905381 Biso 1.0 C
H 1.0 1.88108 1.6403 0.768094 Biso 1.0 H
H 1.0 1.7639 1.63653 0.881037 Biso 1.0 H
H 1.0 1.96129 1.39426 0.874865 Biso 1.0 H
O 1.0 1.87714 1.37583 0.9582 Biso 1.0 O
N 1.0 1.81477 1.52625 0.908368 Biso 1.0 N
C 1.0 1.12418 1.87536 0.511898 Biso 1.0 C
C 1.0 1.13249 1.80796 0.404892 Biso 1.0 C
C 1.0 1.19033 1.8649 0.404171 Biso 1.0 C
C 1.0 1.09787 1.90428 0.587356 Biso 1.0 C
H 1.0 1.11827 1.76424 0.361169 Biso 1.0 H
H 1.0 1.23329 1.87839 0.359475 Biso 1.0 H
H 1.0 1.12976 1.95676 0.608851 Biso 1.0 H
O 1.0 1.04481 1.87431 0.625713 Biso 1.0 O
N 1.0 1.18477 1.90689 0.471436 Biso 1.0 N
C 1.0 1.99071 1.37533 0.378053 Biso 1.0 C
C 1.0 1.91547 1.4042 0.404117 Biso 1.0 C
H 1.0 1.89426 1.45663 0.371813 Biso 1.0 H
O 1.0 1.87693 1.37432 0.457194 Biso 1.0 O
Zn 1.0 1.25217 1.49967 1.00508 Biso 1.0 Zn
C 1.0 1.00878 1.37586 1.62855 Biso 1.0 C
C 1.0 1.08355 1.40257 1.59925 Biso 1.0 C
H 1.0 1.10504 1.37079 1.54643 Biso 1.0 H
O 1.0 1.12158 1.45575 1.62931 Biso 1.0 O
C 1.0 1.12722 1.50966 1.87909 Biso 1.0 C
C 1.0 1.13704 1.40307 1.81124 Biso 1.0 C
C 1.0 1.09745 1.63627 1.69675 Biso 1.0 C
C 1.0 1.09706 1.69363 1.6391 Biso 1.0 C
C 1.0 1.19583 1.40445 1.86745 Biso 1.0 C
C 1.0 1.09739 1.58402 1.90632 Biso 1.0 C
Zn 1.0 1.004 1.49981 1.75268 Biso 1.0 Zn
H 1.0 1.12387 1.35992 1.76672 Biso 1.0 H
H 1.0 1.14139 1.62242 1.74034 Biso 1.0 H
H 1.0 1.13982 1.73831 1.62603 Biso 1.0 H
H 1.0 1.24031 1.36144 1.88069 Biso 1.0 H
H 1.0 1.0435 1.60393 1.87544 Biso 1.0 H
O 1.0 1.12754 1.62327 1.95866 Biso 1.0 O
N 1.0 1.09398 1.46909 1.81909 Biso 1.0 N
N 1.0 1.03044 1.59453 1.6904 Biso 1.0 N
N 1.0 1.03003 1.68698 1.59715 Biso 1.0 N
N 1.0 1.18956 1.47145 1.90926 Biso 1.0 N
N 1.0 1.0298 1.31467 1.41079 Biso 1.0 N
N 1.0 1.09151 1.18885 1.53012 Biso 1.0 N
Zn 1.0 1.00447 1.50268 1.25606 Biso 1.0 Zn
C 1.0 1.00979 1.62826 1.37919 Biso 1.0 C
C 1.0 1.0845 1.60125 1.40857 Biso 1.0 C
H 1.0 1.10655 1.63354 1.46081 Biso 1.0 H
O 1.0 1.12166 1.54713 1.37918 Biso 1.0 O
N 1.0 1.09119 1.81477 1.47266 Biso 1.0 N
C 1.0 1.62224 1.00871 1.37054 Biso 1.0 C
C 1.0 1.59399 1.08386 1.39707 Biso 1.0 C
H 1.0 1.54177 1.10582 1.36489 Biso 1.0 H
O 1.0 1.62426 1.12172 1.45047 Biso 1.0 O
C 1.0 1.62606 1.37284 1.01154 Biso 1.0 C
C 1.0 1.59677 1.39916 1.0867 Biso 1.0 C
H 1.0 1.54276 1.36886 1.10678 Biso 1.0 H
O 1.0 1.62807 1.45031 1.12667 Biso 1.0 O
C 1.0 1.48831 1.12296 1.12211 Biso 1.0 C
C 1.0 1.59443 1.13196 1.19078 Biso 1.0 C
C 1.0 1.59437 1.19026 1.13396 Biso 1.0 C
C 1.0 1.41406 1.09369 1.09362 Biso 1.0 C
H 1.0 1.63783 1.11804 1.23492 Biso 1.0 H
H 1.0 1.63819 1.23392 1.12072 Biso 1.0 H
H 1.0 1.39274 1.04046 1.12456 Biso 1.0 H
O 1.0 1.37655 1.12371 1.03993 Biso 1.0 O
N 1.0 1.52768 1.08972 1.18294 Biso 1.0 N
N 1.0 1.52766 1.1844 1.09149 Biso 1.0 N
Zn 1.0 1.74838 1.00272 1.49283 Biso 1.0 Zn
N 1.0 1.40902 1.31212 1.02707 Biso 1.0 N
Zn 1.0 1.75295 1.49641 1.00537 Biso 1.0 Zn
N 1.0 1.40402 1.0294 1.31025 Biso 1.0 N
C 1.0 1.37206 1.00965 1.62212 Biso 1.0 C
C 1.0 1.40073 1.08465 1.5954 Biso 1.0 C
H 1.0 1.45362 1.10596 1.62693 Biso 1.0 H
O 1.0 1.37021 1.12282 1.54242 Biso 1.0 O
C 1.0 1.87388 1.12529 1.50716 Biso 1.0 C
C 1.0 1.8641 1.19492 1.40158 Biso 1.0 C
C 1.0 1.63415 1.09766 1.68832 Biso 1.0 C
C 1.0 1.90285 1.36602 1.69728 Biso 1.0 C
C 1.0 1.90267 1.30809 1.64021 Biso 1.0 C
C 1.0 1.69247 1.09741 1.63149 Biso 1.0 C
C 1.0 1.80645 1.13793 1.40031 Biso 1.0 C
C 1.0 1.89995 1.09602 1.58242 Biso 1.0 C
Zn 1.0 1.99533 1.25095 1.50404 Biso 1.0 Zn
H 1.0 1.87702 1.24052 1.35953 Biso 1.0 H
H 1.0 1.61996 1.14129 1.73215 Biso 1.0 H
H 1.0 1.85977 1.37956 1.74187 Biso 1.0 H
H 1.0 1.85965 1.26354 1.62767 Biso 1.0 H
H 1.0 1.73589 1.14132 1.6178 Biso 1.0 H
H 1.0 1.76194 1.12606 1.35679 Biso 1.0 H
H 1.0 1.86824 1.04322 1.60336 Biso 1.0 H
O 1.0 1.95244 1.12614 1.62157 Biso 1.0 O
N 1.0 1.90603 1.18666 1.46865 Biso 1.0 N
N 1.0 1.59233 1.03068 1.68133 Biso 1.0 N
N 1.0 1.96963 1.40819 1.68973 Biso 1.0 N
N 1.0 1.96906 1.3148 1.59751 Biso 1.0 N
N 1.0 1.68662 1.03033 1.58968 Biso 1.0 N
N 1.0 1.81303 1.0947 1.46653 Biso 1.0 N
C 1.0 1.12152 1.12674 1.49102 Biso 1.0 C
C 1.0 1.36146 1.09589 1.30267 Biso 1.0 C
C 1.0 1.1351 1.1963 1.59617 Biso 1.0 C
C 1.0 1.19168 1.13818 1.59608 Biso 1.0 C
C 1.0 1.30345 1.09578 1.3597 Biso 1.0 C
C 1.0 1.09163 1.09857 1.41672 Biso 1.0 C
Zn 1.0 1.24657 1.00396 1.49653 Biso 1.0 Zn
H 1.0 1.3748 1.13897 1.25804 Biso 1.0 H
H 1.0 1.12318 1.24101 1.63951 Biso 1.0 H
H 1.0 1.23737 1.12587 1.63826 Biso 1.0 H
H 1.0 1.25858 1.1385 1.37215 Biso 1.0 H
H 1.0 1.03898 1.12989 1.39482 Biso 1.0 H
O 1.0 1.12121 1.04446 1.37948 Biso 1.0 O
N 1.0 1.18273 1.09475 1.53012 Biso 1.0 N
N 1.0 1.31046 1.02952 1.40248 Biso 1.0 N
C 1.0 1.51035 1.12139 1.87003 Biso 1.0 C
C 1.0 1.6389 1.30521 1.9052 Biso 1.0 C
C 1.0 1.40413 1.13266 1.80184 Biso 1.0 C
C 1.0 1.40601 1.19145 1.858 Biso 1.0 C
C 1.0 1.6964 1.3624 1.9065 Biso 1.0 C
C 1.0 1.58429 1.0914 1.89836 Biso 1.0 C
Zn 1.0 1.50066 1.2471 1.99432 Biso 1.0 Zn
H 1.0 1.62685 1.26066 1.8618 Biso 1.0 H
H 1.0 1.36019 1.11957 1.75797 Biso 1.0 H
H 1.0 1.3642 1.23719 1.87043 Biso 1.0 H
H 1.0 1.74228 1.3749 1.86457 Biso 1.0 H
H 1.0 1.60482 1.03755 1.86805 Biso 1.0 H
O 1.0 1.62247 1.12172 1.95148 Biso 1.0 O
N 1.0 1.59518 1.31227 1.97109 Biso 1.0 N
N 1.0 1.46982 1.08876 1.80963 Biso 1.0 N
N 1.0 1.47261 1.18402 1.90015 Biso 1.0 N
N 1.0 1.68831 1.40469 1.97334 Biso 1.0 N
C 1.0 1.99055 1.62631 1.62944 Biso 1.0 C
C 1.0 1.91537 1.59817 1.6027 Biso 1.0 C
H 1.0 1.89357 1.54548 1.63412 Biso 1.0 H
O 1.0 1.87738 1.62905 1.54972 Biso 1.0 O
Zn 1.0 1.99693 1.75244 1.50672 Biso 1.0 Zn
N 1.0 1.91058 1.52968 1.81809 Biso 1.0 N
C 1.0 1.37862 1.62257 1.01008 Biso 1.0 C
C 1.0 1.40829 1.59579 1.08492 Biso 1.0 C
H 1.0 1.4619 1.62657 1.10529 Biso 1.0 H
O 1.0 1.37769 1.54379 1.12436 Biso 1.0 O
C 1.0 1.12599 1.49127 1.12841 Biso 1.0 C
C 1.0 1.36652 1.30426 1.09382 Biso 1.0 C
C 1.0 1.1381 1.59748 1.19649 Biso 1.0 C
C 1.0 1.09829 1.36569 1.31181 Biso 1.0 C
C 1.0 1.0974 1.30829 1.36952 Biso 1.0 C
C 1.0 1.19688 1.59504 1.14038 Biso 1.0 C
C 1.0 1.30945 1.36189 1.09493 Biso 1.0 C
C 1.0 1.09572 1.41717 1.10117 Biso 1.0 C
H 1.0 1.3788 1.25847 1.13586 Biso 1.0 H
H 1.0 1.126 1.64066 1.24128 Biso 1.0 H
H 1.0 1.14272 1.37972 1.26876 Biso 1.0 H
H 1.0 1.14083 1.26451 1.38376 Biso 1.0 H
H 1.0 1.24307 1.63634 1.1279 Biso 1.0 H
H 1.0 1.2648 1.37423 1.13818 Biso 1.0 H
H 1.0 1.04165 1.39745 1.1318 Biso 1.0 H
O 1.0 1.12598 1.37777 1.04894 Biso 1.0 O
N 1.0 1.0937 1.53234 1.18859 Biso 1.0 N
N 1.0 1.03121 1.40734 1.31762 Biso 1.0 N
N 1.0 1.18902 1.52843 1.09844 Biso 1.0 N
N 1.0 1.31683 1.40536 1.02897 Biso 1.0 N
C 1.0 1.8789 1.50988 1.1296 Biso 1.0 C
C 1.0 1.86877 1.40471 1.19943 Biso 1.0 C
C 1.0 1.6373 1.69128 1.09446 Biso 1.0 C
C 1.0 1.69444 1.63372 1.0957 Biso 1.0 C
C 1.0 1.81038 1.4047 1.14274 Biso 1.0 C
C 1.0 1.90827 1.5837 1.10044 Biso 1.0 C
H 1.0 1.88219 1.36176 1.24412 Biso 1.0 H
H 1.0 1.62478 1.73709 1.13641 Biso 1.0 H
H 1.0 1.73897 1.62148 1.13911 Biso 1.0 H
H 1.0 1.76525 1.36213 1.13073 Biso 1.0 H
H 1.0 1.96164 1.60523 1.13106 Biso 1.0 H
O 1.0 1.8781 1.62077 1.0465 Biso 1.0 O
N 1.0 1.91165 1.47095 1.19096 Biso 1.0 N
N 1.0 1.59506 1.68336 1.02757 Biso 1.0 N
N 1.0 1.68738 1.59022 1.0297 Biso 1.0 N
N 1.0 1.8171 1.47064 1.09952 Biso 1.0 N
C 1.0 1.50977 1.87279 1.12146 Biso 1.0 C
C 1.0 1.63262 1.90189 1.3033 Biso 1.0 C
C 1.0 1.40143 1.8629 1.18659 Biso 1.0 C
C 1.0 1.40475 1.80351 1.13117 Biso 1.0 C
C 1.0 1.68973 1.90214 1.36127 Biso 1.0 C
C 1.0 1.58457 1.90271 1.09544 Biso 1.0 C
Zn 1.0 1.49642 1.99608 1.24722 Biso 1.0 Zn
H 1.0 1.61887 1.858 1.25967 Biso 1.0 H
H 1.0 1.35701 1.8762 1.22984 Biso 1.0 H
H 1.0 1.3623 1.75872 1.11726 Biso 1.0 H
H 1.0 1.73427 1.85933 1.37471 Biso 1.0 H
H 1.0 1.60371 1.95696 1.12606 Biso 1.0 H
O 1.0 1.62494 1.87216 1.04417 Biso 1.0 O
N 1.0 1.59097 1.96892 1.30943 Biso 1.0 N
N 1.0 1.46734 1.90638 1.17995 Biso 1.0 N
N 1.0 1.47286 1.80982 1.0911 Biso 1.0 N
N 1.0 1.68295 1.96911 1.40314 Biso 1.0 N
C 1.0 1.49228 1.87487 1.87222 Biso 1.0 C
C 1.0 1.36345 1.90232 1.68865 Biso 1.0 C
C 1.0 1.36564 1.69161 1.9044 Biso 1.0 C
C 1.0 1.59808 1.8642 1.80304 Biso 1.0 C
C 1.0 1.59743 1.80602 1.85977 Biso 1.0 C
C 1.0 1.30825 1.63428 1.90545 Biso 1.0 C
C 1.0 1.30561 1.90294 1.63136 Biso 1.0 C
C 1.0 1.41799 1.90439 1.9 Biso 1.0 C
Zn 1.0 1.5005 1.99601 1.74401 Biso 1.0 Zn
Zn 1.0 1.50368 1.74849 1.99516 Biso 1.0 Zn
H 1.0 1.37798 1.85804 1.73165 Biso 1.0 H
H 1.0 1.37738 1.73661 1.86139 Biso 1.0 H
H 1.0 1.64061 1.87674 1.7577 Biso 1.0 H
H 1.0 1.6398 1.7608 1.87219 Biso 1.0 H
H 1.0 1.26216 1.62211 1.86366 Biso 1.0 H
H 1.0 1.26187 1.85932 1.61759 Biso 1.0 H
H 1.0 1.39723 1.95771 1.8688 Biso 1.0 H
O 1.0 1.37954 1.87448 1.95314 Biso 1.0 O
N 1.0 1.40492 1.96942 1.68245 Biso 1.0 N
N 1.0 1.40962 1.68399 1.97003 Biso 1.0 N
N 1.0 1.53205 1.90728 1.81123 Biso 1.0 N
N 1.0 1.53107 1.81297 1.90241 Biso 1.0 N
N 1.0 1.31681 1.59143 1.97184 Biso 1.0 N
N 1.0 1.31144 1.9704 1.58987 Biso 1.0 N
C 1.0 1.62573 1.99092 1.62097 Biso 1.0 C
C 1.0 1.59866 1.91612 1.59212 Biso 1.0 C
H 1.0 1.63099 1.8936 1.54011 Biso 1.0 H
O 1.0 1.54441 1.87929 1.62177 Biso 1.0 O
C 1.0 1.37788 1.37433 1.98868 Biso 1.0 C
C 1.0 1.40455 1.40356 1.91364 Biso 1.0 C
H 1.0 1.37406 1.4573 1.89323 Biso 1.0 H
O 1.0 1.45623 1.3725 1.87408 Biso 1.0 O
C 1.0 1.62684 1.62174 1.98924 Biso 1.0 C
C 1.0 1.60057 1.59263 1.91399 Biso 1.0 C
H 1.0 1.63125 1.53894 1.89373 Biso 1.0 H
O 1.0 1.54915 1.62369 1.87415 Biso 1.0 O
C 1.0 1.37212 1.99014 1.37145 Biso 1.0 C
C 1.0 1.39923 1.9156 1.40083 Biso 1.0 C
H 1.0 1.3677 1.89424 1.45389 Biso 1.0 H
O 1.0 1.45247 1.8777 1.37073 Biso 1.0 O
C 1.0 1.87258 1.87711 1.48983 Biso 1.0 C
C 1.0 1.86106 1.81149 1.59788 Biso 1.0 C
C 1.0 1.90325 1.63672 1.31129 Biso 1.0 C
C 1.0 1.90323 1.69515 1.3679 Biso 1.0 C
C 1.0 1.80378 1.86888 1.59604 Biso 1.0 C
C 1.0 1.9018 1.9023 1.41416 Biso 1.0 C
H 1.0 1.87358 1.76795 1.64216 Biso 1.0 H
H 1.0 1.85974 1.62233 1.26735 Biso 1.0 H
H 1.0 1.85915 1.73856 1.38112 Biso 1.0 H
H 1.0 1.75927 1.88303 1.63899 Biso 1.0 H
H 1.0 1.95515 1.87093 1.39391 Biso 1.0 H
O 1.0 1.87117 1.95375 1.37417 Biso 1.0 O
N 1.0 1.90393 1.81719 1.53129 Biso 1.0 N
N 1.0 1.97028 1.59498 1.31873 Biso 1.0 N
N 1.0 1.9702 1.68953 1.4101 Biso 1.0 N
N 1.0 1.81116 1.90969 1.52805 Biso 1.0 N
C 1.0 1.87727 1.48857 1.8777 Biso 1.0 C
C 1.0 1.86731 1.59581 1.81115 Biso 1.0 C
C 1.0 1.80833 1.59366 1.86728 Biso 1.0 C
C 1.0 1.90734 1.41442 1.90538 Biso 1.0 C
H 1.0 1.88108 1.6403 1.76809 Biso 1.0 H
H 1.0 1.7639 1.63653 1.88104 Biso 1.0 H
H 1.0 1.96129 1.39426 1.87486 Biso 1.0 H
O 1.0 1.87714 1.37583 1.9582 Biso 1.0 O
N 1.0 1.81477 1.52625 1.90837 Biso 1.0 N
C 1.0 1.12418 1.87536 1.5119 Biso 1.0 C
C 1.0 1.13249 1.80796 1.40489 Biso 1.0 C
C 1.0 1.19033 1.8649 1.40417 Biso 1.0 C
C 1.0 1.09787 1.90428 1.58736 Biso 1.0 C
H 1.0 1.11827 1.76424 1.36117 Biso 1.0 H
H 1.0 1.23329 1.87839 1.35948 Biso 1.0 H
H 1.0 1.12976 1.95676 1.60885 Biso 1.0 H
O 1.0 1.04481 1.87431 1.62571 Biso 1.0 O
N 1.0 1.18477 1.90689 1.47144 Biso 1.0 N
C 1.0 1.99071 1.37533 1.37805 Biso 1.0 C
C 1.0 1.91547 1.4042 1.40412 Biso 1.0 C
H 1.0 1.89426 1.45663 1.37181 Biso 1.0 H
O 1.0 1.87693 1.37432 1.45719 Biso 1.0 O
