#======================================================================

# CRYSTAL DATA

#----------------------------------------------------------------------

data_VESTA_phase_1


_pd_phase_name                         ''
_cell_length_a                         22.46095
_cell_length_b                         22.46095
_cell_length_c                         15.94663
_cell_angle_alpha                      90
_cell_angle_beta                       90
_cell_angle_gamma                      120
_symmetry_space_group_name_H-M         'P 1'
_symmetry_Int_Tables_number            1

loop_
_symmetry_equiv_pos_as_xyz
   'x, y, z'

loop_
   _atom_site_label
   _atom_site_occupancy
   _atom_site_fract_x
   _atom_site_fract_y
   _atom_site_fract_z
   _atom_site_adp_type
   _atom_site_B_iso_or_equiv
   _atom_site_type_symbol
   C1         1.0     0.693767      0.026355      0.174736     Biso  1.000000 C
   C2         1.0     0.531036      0.052824      0.328963     Biso  1.000000 C
   C3         1.0     0.588880      0.116751      0.434249     Biso  1.000000 C
   C4         1.0     0.636473      0.153858      0.497482     Biso  1.000000 C
   C5         1.0     0.526088      0.116919      0.427274     Biso  1.000000 C
   C6         1.0     0.509534      0.154773      0.482826     Biso  1.000000 C
   C7         1.0     0.619588      0.191193      0.552709     Biso  1.000000 C
   C8         1.0     0.557297      0.191905      0.545157     Biso  1.000000 C
   C9         1.0     0.602186      0.939733      0.226376     Biso  1.000000 C
   C10        1.0     0.546713      0.892767      0.275225     Biso  1.000000 C
   C11        1.0     0.504636      0.828035      0.240578     Biso  1.000000 C
   C12        1.0     0.516482      0.810590      0.159777     Biso  1.000000 C
   C13        1.0     0.614850      0.922003      0.145427     Biso  1.000000 C
   C14        1.0     0.571587      0.857070      0.110793     Biso  1.000000 C
   C15        1.0     0.973645      0.667413      0.174736     Biso  1.000000 C
   C16        1.0     0.947176      0.478212      0.328963     Biso  1.000000 C
   C17        1.0     0.883250      0.472129      0.434249     Biso  1.000000 C
   C18        1.0     0.846142      0.482616      0.497482     Biso  1.000000 C
   C19        1.0     0.883081      0.409169      0.427274     Biso  1.000000 C
   C20        1.0     0.845227      0.354761      0.482826     Biso  1.000000 C
   C21        1.0     0.808807      0.428394      0.552709     Biso  1.000000 C
   C22        1.0     0.808095      0.365392      0.545157     Biso  1.000000 C
   C23        1.0     0.332587      0.306233      0.174736     Biso  1.000000 C
   C24        1.0     0.337546      0.397814      0.226376     Biso  1.000000 C
   C25        1.0     0.346055      0.453287      0.275225     Biso  1.000000 C
   C26        1.0     0.323398      0.495364      0.240578     Biso  1.000000 C
   C27        1.0     0.294108      0.483518      0.159777     Biso  1.000000 C
   C28        1.0     0.307153      0.385150      0.145427     Biso  1.000000 C
   C29        1.0     0.285483      0.428413      0.110793     Biso  1.000000 C
   C30        1.0     0.521788      0.468964      0.328963     Biso  1.000000 C
   C31        1.0     0.527871      0.411120      0.434249     Biso  1.000000 C
   C32        1.0     0.517384      0.363527      0.497482     Biso  1.000000 C
   C33        1.0     0.590831      0.473912      0.427274     Biso  1.000000 C
   C34        1.0     0.645239      0.490466      0.482826     Biso  1.000000 C
   C35        1.0     0.571606      0.380412      0.552709     Biso  1.000000 C
   C36        1.0     0.634608      0.442703      0.545157     Biso  1.000000 C
   C37        1.0     0.397814      0.060267      0.773623     Biso  1.000000 C
   C38        1.0     0.453288      0.107233      0.724775     Biso  1.000000 C
   C39        1.0     0.495364      0.171965      0.759422     Biso  1.000000 C
   C40        1.0     0.483518      0.189410      0.840223     Biso  1.000000 C
   C41        1.0     0.385150      0.077997      0.854573     Biso  1.000000 C
   C42        1.0     0.428413      0.142931      0.889207     Biso  1.000000 C
   C43        1.0     0.306233      0.973645      0.825265     Biso  1.000000 C
   C44        1.0     0.468964      0.947176      0.671037     Biso  1.000000 C
   C45        1.0     0.411120      0.883250      0.565751     Biso  1.000000 C
   C46        1.0     0.363527      0.846142      0.502518     Biso  1.000000 C
   C47        1.0     0.473912      0.883081      0.572726     Biso  1.000000 C
   C48        1.0     0.490466      0.845227      0.517174     Biso  1.000000 C
   C49        1.0     0.380412      0.808807      0.447291     Biso  1.000000 C
   C50        1.0     0.442703      0.808095      0.454843     Biso  1.000000 C
   C51        1.0     0.026355      0.332587      0.825265     Biso  1.000000 C
   C52        1.0     0.052824      0.521788      0.671037     Biso  1.000000 C
   C53        1.0     0.116751      0.527871      0.565751     Biso  1.000000 C
   C54        1.0     0.153858      0.517384      0.502518     Biso  1.000000 C
   C55        1.0     0.116919      0.590831      0.572726     Biso  1.000000 C
   C56        1.0     0.154773      0.645239      0.517174     Biso  1.000000 C
   C57        1.0     0.191193      0.571606      0.447291     Biso  1.000000 C
   C58        1.0     0.191905      0.634608      0.454843     Biso  1.000000 C
   C59        1.0     0.667413      0.693767      0.825265     Biso  1.000000 C
   C60        1.0     0.662454      0.602186      0.773623     Biso  1.000000 C
   C61        1.0     0.653945      0.546713      0.724775     Biso  1.000000 C
   C62        1.0     0.676602      0.504636      0.759422     Biso  1.000000 C
   C63        1.0     0.705892      0.516482      0.840223     Biso  1.000000 C
   C64        1.0     0.692847      0.614850      0.854573     Biso  1.000000 C
   C65        1.0     0.714517      0.571587      0.889207     Biso  1.000000 C
   C66        1.0     0.478212      0.531036      0.671037     Biso  1.000000 C
   C67        1.0     0.472129      0.588880      0.565751     Biso  1.000000 C
   C68        1.0     0.482616      0.636473      0.502518     Biso  1.000000 C
   C69        1.0     0.409169      0.526088      0.572726     Biso  1.000000 C
   C70        1.0     0.354761      0.509534      0.517174     Biso  1.000000 C
   C71        1.0     0.428394      0.619588      0.447291     Biso  1.000000 C
   C72        1.0     0.365392      0.557297      0.454843     Biso  1.000000 C
   C73        1.0     0.360434      0.359688      0.508069     Biso  1.000000 C
   C74        1.0     0.268853      0.273066      0.559710     Biso  1.000000 C
   C75        1.0     0.213379      0.226101      0.608558     Biso  1.000000 C
   C76        1.0     0.171303      0.161368      0.573911     Biso  1.000000 C
   C77        1.0     0.183149      0.143923      0.493110     Biso  1.000000 C
   C78        1.0     0.281517      0.255336      0.478760     Biso  1.000000 C
   C79        1.0     0.238254      0.190403      0.444126     Biso  1.000000 C
   C80        1.0     0.197703      0.386157      0.662296     Biso  1.000000 C
   C81        1.0     0.255546      0.450084      0.767582     Biso  1.000000 C
   C82        1.0     0.303140      0.487191      0.830815     Biso  1.000000 C
   C83        1.0     0.192755      0.450252      0.760607     Biso  1.000000 C
   C84        1.0     0.176201      0.488107      0.816159     Biso  1.000000 C
   C85        1.0     0.286254      0.524527      0.886043     Biso  1.000000 C
   C86        1.0     0.223964      0.525239      0.878490     Biso  1.000000 C
   C87        1.0     0.640312      0.000746      0.508069     Biso  1.000000 C
   C88        1.0     0.838632      0.009935      0.573911     Biso  1.000000 C
   C89        1.0     0.856077      0.039225      0.493110     Biso  1.000000 C
   C90        1.0     0.744664      0.026181      0.478760     Biso  1.000000 C
   C91        1.0     0.809597      0.047851      0.444126     Biso  1.000000 C
   C92        1.0     0.726934      0.995787      0.559710     Biso  1.000000 C
   C93        1.0     0.773899      0.987279      0.608558     Biso  1.000000 C
   C94        1.0     0.613843      0.811546      0.662296     Biso  1.000000 C
   C95        1.0     0.549916      0.805462      0.767582     Biso  1.000000 C
   C96        1.0     0.512809      0.815949      0.830815     Biso  1.000000 C
   C97        1.0     0.549748      0.742503      0.760607     Biso  1.000000 C
   C98        1.0     0.511893      0.688094      0.816159     Biso  1.000000 C
   C99        1.0     0.475473      0.761728      0.886043     Biso  1.000000 C
   C100       1.0     0.474762      0.698726      0.878490     Biso  1.000000 C
   C101       1.0     0.004213      0.731147      0.559710     Biso  1.000000 C
   C102       1.0     0.012721      0.786621      0.608558     Biso  1.000000 C
   C103       1.0     0.188454      0.802297      0.662296     Biso  1.000000 C
   C104       1.0     0.194537      0.744454      0.767582     Biso  1.000000 C
   C105       1.0     0.184051      0.696860      0.830815     Biso  1.000000 C
   C106       1.0     0.257497      0.807245      0.760607     Biso  1.000000 C
   C107       1.0     0.311906      0.823799      0.816159     Biso  1.000000 C
   C108       1.0     0.238272      0.713746      0.886043     Biso  1.000000 C
   C109       1.0     0.301274      0.776036      0.878490     Biso  1.000000 C
   C110       1.0     0.999254      0.639566      0.508069     Biso  1.000000 C
   C111       1.0     0.990065      0.828697      0.573911     Biso  1.000000 C
   C112       1.0     0.960775      0.816851      0.493110     Biso  1.000000 C
   C113       1.0     0.973819      0.718483      0.478760     Biso  1.000000 C
   C114       1.0     0.952149      0.761746      0.444126     Biso  1.000000 C
   C115       1.0     0.064480      0.393601      0.106957     Biso  1.000000 C
   C116       1.0     0.119954      0.440566      0.058108     Biso  1.000000 C
   C117       1.0     0.162030      0.505298      0.092755     Biso  1.000000 C
   C118       1.0     0.150185      0.522743      0.173557     Biso  1.000000 C
   C119       1.0     0.051817      0.411331      0.187907     Biso  1.000000 C
   C120       1.0     0.095080      0.476264      0.222540     Biso  1.000000 C
   C121       1.0     0.135630      0.280509      0.004371     Biso  1.000000 C
   C122       1.0     0.077787      0.216583      0.899085     Biso  1.000000 C
   C123       1.0     0.030193      0.179476      0.835851     Biso  1.000000 C
   C124       1.0     0.140579      0.216414      0.906060     Biso  1.000000 C
   C125       1.0     0.157132      0.178560      0.850508     Biso  1.000000 C
   C126       1.0     0.047079      0.142140      0.780624     Biso  1.000000 C
   C127       1.0     0.109369      0.141428      0.788176     Biso  1.000000 C
   C128       1.0     0.972899      0.306979      0.158598     Biso  1.000000 C
   C129       1.0     0.693022      0.665921      0.158598     Biso  1.000000 C
   C130       1.0     0.606399      0.670880      0.106957     Biso  1.000000 C
   C131       1.0     0.559434      0.679388      0.058108     Biso  1.000000 C
   C132       1.0     0.494702      0.656732      0.092755     Biso  1.000000 C
   C133       1.0     0.477257      0.627442      0.173557     Biso  1.000000 C
   C134       1.0     0.588669      0.640486      0.187907     Biso  1.000000 C
   C135       1.0     0.523736      0.618816      0.222540     Biso  1.000000 C
   C136       1.0     0.719491      0.855121      0.004371     Biso  1.000000 C
   C137       1.0     0.783417      0.861204      0.899085     Biso  1.000000 C
   C138       1.0     0.820524      0.850718      0.835851     Biso  1.000000 C
   C139       1.0     0.783586      0.924164      0.906060     Biso  1.000000 C
   C140       1.0     0.821440      0.978572      0.850508     Biso  1.000000 C
   C141       1.0     0.857860      0.904939      0.780624     Biso  1.000000 C
   C142       1.0     0.858572      0.967941      0.788176     Biso  1.000000 C
   C143       1.0     0.334079      0.027101      0.158598     Biso  1.000000 C
   C144       1.0     0.138796      0.922213      0.899085     Biso  1.000000 C
   C145       1.0     0.149282      0.969807      0.835851     Biso  1.000000 C
   C146       1.0     0.075836      0.859421      0.906060     Biso  1.000000 C
   C147       1.0     0.021428      0.842868      0.850508     Biso  1.000000 C
   C148       1.0     0.095061      0.952921      0.780624     Biso  1.000000 C
   C149       1.0     0.032059      0.890631      0.788176     Biso  1.000000 C
   C150       1.0     0.027101      0.693021      0.841402     Biso  1.000000 C
   C151       1.0     0.922213      0.783417      0.100915     Biso  1.000000 C
   C152       1.0     0.969807      0.820524      0.164149     Biso  1.000000 C
   C153       1.0     0.859421      0.783586      0.093940     Biso  1.000000 C
   C154       1.0     0.842868      0.821440      0.149492     Biso  1.000000 C
   C155       1.0     0.952921      0.857860      0.219376     Biso  1.000000 C
   C156       1.0     0.890631      0.858572      0.211824     Biso  1.000000 C
   C157       1.0     0.935520      0.606399      0.893043     Biso  1.000000 C
   C158       1.0     0.880046      0.559434      0.941892     Biso  1.000000 C
   C159       1.0     0.837970      0.494702      0.907245     Biso  1.000000 C
   C160       1.0     0.849815      0.477257      0.826443     Biso  1.000000 C
   C161       1.0     0.948183      0.588669      0.812093     Biso  1.000000 C
   C162       1.0     0.904920      0.523736      0.777460     Biso  1.000000 C
   C163       1.0     0.864370      0.719491      0.995629     Biso  1.000000 C
   C164       1.0     0.216583      0.138796      0.100915     Biso  1.000000 C
   C165       1.0     0.179476      0.149282      0.164149     Biso  1.000000 C
   C166       1.0     0.216414      0.075836      0.093940     Biso  1.000000 C
   C167       1.0     0.178560      0.021428      0.149492     Biso  1.000000 C
   C168       1.0     0.142140      0.095061      0.219376     Biso  1.000000 C
   C169       1.0     0.141428      0.032059      0.211824     Biso  1.000000 C
   C170       1.0     0.306978      0.334079      0.841402     Biso  1.000000 C
   C171       1.0     0.393601      0.329120      0.893043     Biso  1.000000 C
   C172       1.0     0.440566      0.320612      0.941892     Biso  1.000000 C
   C173       1.0     0.505298      0.343268      0.907245     Biso  1.000000 C
   C174       1.0     0.522743      0.372558      0.826443     Biso  1.000000 C
   C175       1.0     0.411331      0.359514      0.812093     Biso  1.000000 C
   C176       1.0     0.476264      0.381184      0.777460     Biso  1.000000 C
   C177       1.0     0.280509      0.144879      0.995629     Biso  1.000000 C
   C178       1.0     0.861204      0.077787      0.100915     Biso  1.000000 C
   C179       1.0     0.850718      0.030193      0.164149     Biso  1.000000 C
   C180       1.0     0.924164      0.140578      0.093940     Biso  1.000000 C
   C181       1.0     0.978572      0.157132      0.149492     Biso  1.000000 C
   C182       1.0     0.904939      0.047079      0.219376     Biso  1.000000 C
   C183       1.0     0.967941      0.109369      0.211824     Biso  1.000000 C
   C184       1.0     0.665921      0.972899      0.841402     Biso  1.000000 C
   C185       1.0     0.639566      0.640312      0.491931     Biso  1.000000 C
   C186       1.0     0.731147      0.726934      0.440290     Biso  1.000000 C
   C187       1.0     0.786621      0.773899      0.391442     Biso  1.000000 C
   C188       1.0     0.828697      0.838632      0.426089     Biso  1.000000 C
   C189       1.0     0.816851      0.856076      0.506890     Biso  1.000000 C
   C190       1.0     0.718483      0.744664      0.521240     Biso  1.000000 C
   C191       1.0     0.761746      0.809597      0.555874     Biso  1.000000 C
   C192       1.0     0.802297      0.613843      0.337704     Biso  1.000000 C
   C193       1.0     0.744454      0.549916      0.232418     Biso  1.000000 C
   C194       1.0     0.696860      0.512809      0.169185     Biso  1.000000 C
   C195       1.0     0.807245      0.549748      0.239393     Biso  1.000000 C
   C196       1.0     0.823799      0.511893      0.183841     Biso  1.000000 C
   C197       1.0     0.713746      0.475473      0.113957     Biso  1.000000 C
   C198       1.0     0.776036      0.474762      0.121510     Biso  1.000000 C
   C199       1.0     0.273066      0.004213      0.440290     Biso  1.000000 C
   C200       1.0     0.226101      0.012721      0.391442     Biso  1.000000 C
   C201       1.0     0.386157      0.188454      0.337704     Biso  1.000000 C
   C202       1.0     0.450084      0.194537      0.232418     Biso  1.000000 C
   C203       1.0     0.487191      0.184051      0.169185     Biso  1.000000 C
   C204       1.0     0.450252      0.257497      0.239393     Biso  1.000000 C
   C205       1.0     0.488107      0.311906      0.183841     Biso  1.000000 C
   C206       1.0     0.524527      0.238272      0.113957     Biso  1.000000 C
   C207       1.0     0.525238      0.301274      0.121510     Biso  1.000000 C
   C208       1.0     0.359688      0.999254      0.491931     Biso  1.000000 C
   C209       1.0     0.161368      0.990065      0.426089     Biso  1.000000 C
   C210       1.0     0.143923      0.960775      0.506890     Biso  1.000000 C
   C211       1.0     0.255336      0.973819      0.521240     Biso  1.000000 C
   C212       1.0     0.190403      0.952149      0.555874     Biso  1.000000 C
   C213       1.0     0.000746      0.360434      0.491931     Biso  1.000000 C
   C214       1.0     0.009935      0.171303      0.426089     Biso  1.000000 C
   C215       1.0     0.039225      0.183149      0.506890     Biso  1.000000 C
   C216       1.0     0.026181      0.281517      0.521240     Biso  1.000000 C
   C217       1.0     0.047851      0.238254      0.555874     Biso  1.000000 C
   C218       1.0     0.995787      0.268853      0.440290     Biso  1.000000 C
   C219       1.0     0.987279      0.213379      0.391442     Biso  1.000000 C
   C220       1.0     0.811546      0.197703      0.337704     Biso  1.000000 C
   C221       1.0     0.805463      0.255546      0.232418     Biso  1.000000 C
   C222       1.0     0.815949      0.303140      0.169185     Biso  1.000000 C
   C223       1.0     0.742503      0.192755      0.239393     Biso  1.000000 C
   C224       1.0     0.688094      0.176201      0.183841     Biso  1.000000 C
   C225       1.0     0.761728      0.286254      0.113957     Biso  1.000000 C
   C226       1.0     0.698726      0.223964      0.121510     Biso  1.000000 C
   C227       1.0     0.060267      0.662454      0.226376     Biso  1.000000 C
   C228       1.0     0.107233      0.653945      0.275225     Biso  1.000000 C
   C229       1.0     0.171965      0.676602      0.240578     Biso  1.000000 C
   C230       1.0     0.189410      0.705892      0.159777     Biso  1.000000 C
   C231       1.0     0.077997      0.692847      0.145427     Biso  1.000000 C
   C232       1.0     0.142931      0.714517      0.110793     Biso  1.000000 C
   C233       1.0     0.329120      0.935520      0.106957     Biso  1.000000 C
   C234       1.0     0.320612      0.880046      0.058108     Biso  1.000000 C
   C235       1.0     0.343268      0.837970      0.092755     Biso  1.000000 C
   C236       1.0     0.372558      0.849815      0.173557     Biso  1.000000 C
   C237       1.0     0.359514      0.948183      0.187907     Biso  1.000000 C
   C238       1.0     0.381184      0.904920      0.222540     Biso  1.000000 C
   C239       1.0     0.144879      0.864370      0.004371     Biso  1.000000 C
   C240       1.0     0.939733      0.337546      0.773623     Biso  1.000000 C
   C241       1.0     0.892767      0.346055      0.724775     Biso  1.000000 C
   C242       1.0     0.828035      0.323398      0.759422     Biso  1.000000 C
   C243       1.0     0.810590      0.294108      0.840223     Biso  1.000000 C
   C244       1.0     0.922003      0.307153      0.854573     Biso  1.000000 C
   C245       1.0     0.857069      0.285483      0.889207     Biso  1.000000 C
   C246       1.0     0.670880      0.064480      0.893043     Biso  1.000000 C
   C247       1.0     0.679388      0.119954      0.941892     Biso  1.000000 C
   C248       1.0     0.656732      0.162030      0.907245     Biso  1.000000 C
   C249       1.0     0.627442      0.150185      0.826443     Biso  1.000000 C
   C250       1.0     0.640486      0.051817      0.812093     Biso  1.000000 C
   C251       1.0     0.618816      0.095080      0.777460     Biso  1.000000 C
   C252       1.0     0.855121      0.135630      0.995629     Biso  1.000000 C
   H1         1.0     0.739222      0.076881      0.168937     Biso  1.000000 H
   H2         1.0     0.516928      0.018650      0.275096     Biso  1.000000 H
   H3         1.0     0.684738      0.153581      0.502833     Biso  1.000000 H
   H4         1.0     0.461424      0.155274      0.477045     Biso  1.000000 H
   H5         1.0     0.655461      0.220746      0.602648     Biso  1.000000 H
   H6         1.0     0.546364      0.222468      0.588915     Biso  1.000000 H
   H7         1.0     0.536930      0.905741      0.337729     Biso  1.000000 H
   H8         1.0     0.460867      0.789804      0.276546     Biso  1.000000 H
   H9         1.0     0.482191      0.759218      0.135613     Biso  1.000000 H
   H10        1.0     0.580410      0.843329      0.048208     Biso  1.000000 H
   H11        1.0     0.923119      0.662341      0.168937     Biso  1.000000 H
   H12        1.0     0.981350      0.498278      0.275096     Biso  1.000000 H
   H13        1.0     0.846419      0.531156      0.502833     Biso  1.000000 H
   H14        1.0     0.844726      0.306150      0.477045     Biso  1.000000 H
   H15        1.0     0.779254      0.434715      0.602648     Biso  1.000000 H
   H16        1.0     0.777532      0.323896      0.588915     Biso  1.000000 H
   H17        1.0     0.337659      0.260778      0.168937     Biso  1.000000 H
   H18        1.0     0.368812      0.463070      0.337729     Biso  1.000000 H
   H19        1.0     0.328937      0.539133      0.276546     Biso  1.000000 H
   H20        1.0     0.277027      0.517809      0.135613     Biso  1.000000 H
   H21        1.0     0.262919      0.419590      0.048208     Biso  1.000000 H
   H22        1.0     0.501722      0.483072      0.275096     Biso  1.000000 H
   H23        1.0     0.468844      0.315262      0.502833     Biso  1.000000 H
   H24        1.0     0.693850      0.538576      0.477045     Biso  1.000000 H
   H25        1.0     0.565285      0.344539      0.602648     Biso  1.000000 H
   H26        1.0     0.676104      0.453636      0.588915     Biso  1.000000 H
   H27        1.0     0.463070      0.094259      0.662271     Biso  1.000000 H
   H28        1.0     0.539133      0.210196      0.723454     Biso  1.000000 H
   H29        1.0     0.517809      0.240782      0.864387     Biso  1.000000 H
   H30        1.0     0.419590      0.156671      0.951792     Biso  1.000000 H
   H31        1.0     0.260778      0.923119      0.831063     Biso  1.000000 H
   H32        1.0     0.483072      0.981350      0.724904     Biso  1.000000 H
   H33        1.0     0.315262      0.846419      0.497167     Biso  1.000000 H
   H34        1.0     0.538576      0.844726      0.522955     Biso  1.000000 H
   H35        1.0     0.344539      0.779254      0.397352     Biso  1.000000 H
   H36        1.0     0.453636      0.777532      0.411085     Biso  1.000000 H
   H37        1.0     0.076881      0.337659      0.831063     Biso  1.000000 H
   H38        1.0     0.018650      0.501722      0.724904     Biso  1.000000 H
   H39        1.0     0.153581      0.468843      0.497167     Biso  1.000000 H
   H40        1.0     0.155274      0.693850      0.522955     Biso  1.000000 H
   H41        1.0     0.220746      0.565285      0.397352     Biso  1.000000 H
   H42        1.0     0.222468      0.676104      0.411085     Biso  1.000000 H
   H43        1.0     0.662341      0.739222      0.831063     Biso  1.000000 H
   H44        1.0     0.631189      0.536930      0.662271     Biso  1.000000 H
   H45        1.0     0.671063      0.460867      0.723454     Biso  1.000000 H
   H46        1.0     0.722973      0.482191      0.864387     Biso  1.000000 H
   H47        1.0     0.737081      0.580410      0.951792     Biso  1.000000 H
   H48        1.0     0.498278      0.516928      0.724904     Biso  1.000000 H
   H49        1.0     0.531156      0.684738      0.497167     Biso  1.000000 H
   H50        1.0     0.306150      0.461424      0.522955     Biso  1.000000 H
   H51        1.0     0.434715      0.655461      0.397352     Biso  1.000000 H
   H52        1.0     0.323896      0.546364      0.411085     Biso  1.000000 H
   H53        1.0     0.405888      0.410214      0.502270     Biso  1.000000 H
   H54        1.0     0.203596      0.239075      0.671063     Biso  1.000000 H
   H55        1.0     0.127534      0.123137      0.609879     Biso  1.000000 H
   H56        1.0     0.148858      0.092552      0.468947     Biso  1.000000 H
   H57        1.0     0.247076      0.176662      0.381541     Biso  1.000000 H
   H58        1.0     0.183595      0.351983      0.608429     Biso  1.000000 H
   H59        1.0     0.351404      0.486914      0.836166     Biso  1.000000 H
   H60        1.0     0.128091      0.488608      0.810378     Biso  1.000000 H
   H61        1.0     0.322127      0.554079      0.935981     Biso  1.000000 H
   H62        1.0     0.213031      0.555802      0.922248     Biso  1.000000 H
   H63        1.0     0.589786      0.995674      0.502270     Biso  1.000000 H
   H64        1.0     0.907448      0.056306      0.468947     Biso  1.000000 H
   H65        1.0     0.823338      0.070414      0.381541     Biso  1.000000 H
   H66        1.0     0.760926      0.964522      0.671063     Biso  1.000000 H
   H67        1.0     0.876863      0.004396      0.609879     Biso  1.000000 H
   H68        1.0     0.648017      0.831612      0.608429     Biso  1.000000 H
   H69        1.0     0.513086      0.864490      0.836166     Biso  1.000000 H
   H70        1.0     0.511392      0.639484      0.810378     Biso  1.000000 H
   H71        1.0     0.445921      0.768048      0.935981     Biso  1.000000 H
   H72        1.0     0.444198      0.657229      0.922248     Biso  1.000000 H
   H73        1.0     0.035478      0.796404      0.671063     Biso  1.000000 H
   H74        1.0     0.995604      0.872466      0.609879     Biso  1.000000 H
   H75        1.0     0.168388      0.816405      0.608429     Biso  1.000000 H
   H76        1.0     0.135510      0.648596      0.836166     Biso  1.000000 H
   H77        1.0     0.360516      0.871909      0.810378     Biso  1.000000 H
   H78        1.0     0.231952      0.677873      0.935981     Biso  1.000000 H
   H79        1.0     0.342771      0.786969      0.922248     Biso  1.000000 H
   H80        1.0     0.004326      0.594112      0.502270     Biso  1.000000 H
   H81        1.0     0.943694      0.851142      0.468947     Biso  1.000000 H
   H82        1.0     0.929586      0.752924      0.381541     Biso  1.000000 H
   H83        1.0     0.129737      0.427592      0.995604     Biso  1.000000 H
   H84        1.0     0.205800      0.543529      0.056787     Biso  1.000000 H
   H85        1.0     0.184475      0.574115      0.197720     Biso  1.000000 H
   H86        1.0     0.086257      0.490005      0.285126     Biso  1.000000 H
   H87        1.0     0.149738      0.314683      0.058238     Biso  1.000000 H
   H88        1.0     0.205242      0.178059      0.856288     Biso  1.000000 H
   H89        1.0     0.011206      0.112587      0.730686     Biso  1.000000 H
   H90        1.0     0.120303      0.110865      0.744419     Biso  1.000000 H
   H91        1.0     0.927445      0.256453      0.164397     Biso  1.000000 H
   H92        1.0     0.743547      0.670992      0.164397     Biso  1.000000 H
   H93        1.0     0.572408      0.702145      0.995604     Biso  1.000000 H
   H94        1.0     0.456471      0.662270      0.056787     Biso  1.000000 H
   H95        1.0     0.425885      0.610360      0.197720     Biso  1.000000 H
   H96        1.0     0.509995      0.596252      0.285126     Biso  1.000000 H
   H97        1.0     0.685317      0.835055      0.058238     Biso  1.000000 H
   H98        1.0     0.820248      0.802177      0.830500     Biso  1.000000 H
   H99        1.0     0.887413      0.898619      0.730686     Biso  1.000000 H
   H100       1.0     0.889135      0.009438      0.744419     Biso  1.000000 H
   H101       1.0     0.329008      0.072555      0.164397     Biso  1.000000 H
   H102       1.0     0.197823      0.018071      0.830500     Biso  1.000000 H
   H103       1.0     0.101381      0.988794      0.730686     Biso  1.000000 H
   H104       1.0     0.990562      0.879697      0.744419     Biso  1.000000 H
   H105       1.0     0.072555      0.743547      0.835603     Biso  1.000000 H
   H106       1.0     0.794758      0.821941      0.143711     Biso  1.000000 H
   H107       1.0     0.988794      0.887413      0.269314     Biso  1.000000 H
   H108       1.0     0.879697      0.889135      0.255581     Biso  1.000000 H
   H109       1.0     0.870263      0.572408      0.004396     Biso  1.000000 H
   H110       1.0     0.794200      0.456471      0.943213     Biso  1.000000 H
   H111       1.0     0.815525      0.425885      0.802280     Biso  1.000000 H
   H112       1.0     0.913743      0.509995      0.714874     Biso  1.000000 H
   H113       1.0     0.850262      0.685317      0.941762     Biso  1.000000 H
   H114       1.0     0.179752      0.197823      0.169500     Biso  1.000000 H
   H115       1.0     0.112587      0.101381      0.269314     Biso  1.000000 H
   H116       1.0     0.110865      0.990562      0.255581     Biso  1.000000 H
   H117       1.0     0.256453      0.329008      0.835603     Biso  1.000000 H
   H118       1.0     0.427592      0.297855      0.004396     Biso  1.000000 H
   H119       1.0     0.543529      0.337730      0.943213     Biso  1.000000 H
   H120       1.0     0.574115      0.389640      0.802280     Biso  1.000000 H
   H121       1.0     0.490005      0.403748      0.714874     Biso  1.000000 H
   H122       1.0     0.314683      0.164945      0.941762     Biso  1.000000 H
   H123       1.0     0.898619      0.011206      0.269314     Biso  1.000000 H
   H124       1.0     0.009438      0.120303      0.255581     Biso  1.000000 H
   H125       1.0     0.802177      0.981929      0.169500     Biso  1.000000 H
   H126       1.0     0.670992      0.927445      0.835603     Biso  1.000000 H
   H127       1.0     0.594112      0.589786      0.497730     Biso  1.000000 H
   H128       1.0     0.796404      0.760925      0.328937     Biso  1.000000 H
   H129       1.0     0.872466      0.876863      0.390121     Biso  1.000000 H
   H130       1.0     0.851142      0.907448      0.531053     Biso  1.000000 H
   H131       1.0     0.752924      0.823338      0.618459     Biso  1.000000 H
   H132       1.0     0.816405      0.648017      0.391571     Biso  1.000000 H
   H133       1.0     0.648596      0.513086      0.163834     Biso  1.000000 H
   H134       1.0     0.871909      0.511392      0.189622     Biso  1.000000 H
   H135       1.0     0.677873      0.445921      0.064019     Biso  1.000000 H
   H136       1.0     0.786969      0.444198      0.077752     Biso  1.000000 H
   H137       1.0     0.239074      0.035478      0.328937     Biso  1.000000 H
   H138       1.0     0.123137      0.995604      0.390121     Biso  1.000000 H
   H139       1.0     0.351983      0.168388      0.391571     Biso  1.000000 H
   H140       1.0     0.486914      0.135510      0.163834     Biso  1.000000 H
   H141       1.0     0.488608      0.360516      0.189622     Biso  1.000000 H
   H142       1.0     0.554079      0.231952      0.064019     Biso  1.000000 H
   H143       1.0     0.555802      0.342771      0.077752     Biso  1.000000 H
   H144       1.0     0.410214      0.004326      0.497730     Biso  1.000000 H
   H145       1.0     0.092552      0.943694      0.531053     Biso  1.000000 H
   H146       1.0     0.176662      0.929586      0.618459     Biso  1.000000 H
   H147       1.0     0.995674      0.405889      0.497730     Biso  1.000000 H
   H148       1.0     0.056306      0.148858      0.531053     Biso  1.000000 H
   H149       1.0     0.070414      0.247076      0.618459     Biso  1.000000 H
   H150       1.0     0.964522      0.203596      0.328937     Biso  1.000000 H
   H151       1.0     0.004396      0.127534      0.390121     Biso  1.000000 H
   H152       1.0     0.831612      0.183595      0.391571     Biso  1.000000 H
   H153       1.0     0.864490      0.351404      0.163834     Biso  1.000000 H
   H154       1.0     0.639484      0.128091      0.189622     Biso  1.000000 H
   H155       1.0     0.768048      0.322127      0.064019     Biso  1.000000 H
   H156       1.0     0.657229      0.213031      0.077752     Biso  1.000000 H
   H157       1.0     0.094259      0.631189      0.337729     Biso  1.000000 H
   H158       1.0     0.210196      0.671063      0.276546     Biso  1.000000 H
   H159       1.0     0.240782      0.722973      0.135613     Biso  1.000000 H
   H160       1.0     0.156671      0.737081      0.048208     Biso  1.000000 H
   H161       1.0     0.297855      0.870263      0.995604     Biso  1.000000 H
   H162       1.0     0.337730      0.794200      0.056787     Biso  1.000000 H
   H163       1.0     0.389640      0.815525      0.197720     Biso  1.000000 H
   H164       1.0     0.403748      0.913743      0.285126     Biso  1.000000 H
   H165       1.0     0.164945      0.850262      0.058238     Biso  1.000000 H
   H166       1.0     0.018071      0.820248      0.169500     Biso  1.000000 H
   H167       1.0     0.905741      0.368811      0.662271     Biso  1.000000 H
   H168       1.0     0.789804      0.328937      0.723454     Biso  1.000000 H
   H169       1.0     0.759218      0.277027      0.864387     Biso  1.000000 H
   H170       1.0     0.843329      0.262919      0.951792     Biso  1.000000 H
   H171       1.0     0.981929      0.179752      0.830500     Biso  1.000000 H
   H172       1.0     0.702145      0.129737      0.004396     Biso  1.000000 H
   H173       1.0     0.662270      0.205800      0.943213     Biso  1.000000 H
   H174       1.0     0.610360      0.184475      0.802280     Biso  1.000000 H
   H175       1.0     0.596252      0.086257      0.714874     Biso  1.000000 H
   H176       1.0     0.835055      0.149738      0.941762     Biso  1.000000 H
   H177       1.0     0.821941      0.027183      0.856288     Biso  1.000000 H
   H178       1.0     0.972817      0.794758      0.856288     Biso  1.000000 H
   H179       1.0     0.178059      0.972817      0.143711     Biso  1.000000 H
   H180       1.0     0.027183      0.205242      0.143711     Biso  1.000000 H
   N1         1.0     0.653221      0.006655      0.242866     Biso  1.000000 N
   N2         1.0     0.490150      0.075482      0.359748     Biso  1.000000 N
   N3         1.0     0.590598      0.075534      0.370645     Biso  1.000000 N
   N4         1.0     0.748002      0.156817      0.306919     Biso  1.000000 N
   N5         1.0     0.688394      0.028840      0.447824     Biso  1.000000 N
   N6         1.0     0.673779      0.978272      0.114491     Biso  1.000000 N
   N7         1.0     0.993345      0.646566      0.242866     Biso  1.000000 N
   N8         1.0     0.924518      0.414668      0.359748     Biso  1.000000 N
   N9         1.0     0.924466      0.515064      0.370645     Biso  1.000000 N
   N10        1.0     0.843183      0.591185      0.306919     Biso  1.000000 N
   N11        1.0     0.971160      0.659554      0.447824     Biso  1.000000 N
   N12        1.0     0.353434      0.346779      0.242866     Biso  1.000000 N
   N13        1.0     0.585332      0.509850      0.359748     Biso  1.000000 N
   N14        1.0     0.304493      0.326221      0.114491     Biso  1.000000 N
   N15        1.0     0.484936      0.409403      0.370645     Biso  1.000000 N
   N16        1.0     0.408815      0.251998      0.306919     Biso  1.000000 N
   N17        1.0     0.340446      0.311606      0.447824     Biso  1.000000 N
   N18        1.0     0.326221      0.021728      0.885509     Biso  1.000000 N
   N19        1.0     0.346779      0.993345      0.757134     Biso  1.000000 N
   N20        1.0     0.509850      0.924518      0.640252     Biso  1.000000 N
   N21        1.0     0.409403      0.924466      0.629355     Biso  1.000000 N
   N22        1.0     0.251998      0.843183      0.693081     Biso  1.000000 N
   N23        1.0     0.311606      0.971160      0.552176     Biso  1.000000 N
   N24        1.0     0.006655      0.353434      0.757134     Biso  1.000000 N
   N25        1.0     0.075482      0.585332      0.640252     Biso  1.000000 N
   N26        1.0     0.075534      0.484936      0.629355     Biso  1.000000 N
   N27        1.0     0.156817      0.408815      0.693081     Biso  1.000000 N
   N28        1.0     0.028840      0.340446      0.552176     Biso  1.000000 N
   N29        1.0     0.646566      0.653221      0.757134     Biso  1.000000 N
   N30        1.0     0.414668      0.490150      0.640252     Biso  1.000000 N
   N31        1.0     0.695507      0.673779      0.885509     Biso  1.000000 N
   N32        1.0     0.515064      0.590597      0.629355     Biso  1.000000 N
   N33        1.0     0.591185      0.748002      0.693081     Biso  1.000000 N
   N34        1.0     0.659554      0.688394      0.552176     Biso  1.000000 N
   N35        1.0     0.319888      0.339988      0.576199     Biso  1.000000 N
   N36        1.0     0.257264      0.408867      0.703978     Biso  1.000000 N
   N37        1.0     0.355061      0.362174      0.781158     Biso  1.000000 N
   N38        1.0     0.660012      0.979900      0.576199     Biso  1.000000 N
   N39        1.0     0.591133      0.848397      0.703978     Biso  1.000000 N
   N40        1.0     0.637826      0.992887      0.781158     Biso  1.000000 N
   N41        1.0     0.020100      0.680112      0.576199     Biso  1.000000 N
   N42        1.0     0.151603      0.742736      0.703978     Biso  1.000000 N
   N43        1.0     0.007113      0.644939      0.781158     Biso  1.000000 N
   N44        1.0     0.013445      0.326678      0.090468     Biso  1.000000 N
   N45        1.0     0.176516      0.257851      0.973586     Biso  1.000000 N
   N46        1.0     0.076069      0.257800      0.962689     Biso  1.000000 N
   N47        1.0     0.992887      0.355061      0.218842     Biso  1.000000 N
   N48        1.0     0.918665      0.176516      0.026414     Biso  1.000000 N
   N49        1.0     0.673322      0.686767      0.090468     Biso  1.000000 N
   N50        1.0     0.644939      0.637826      0.218842     Biso  1.000000 N
   N51        1.0     0.823484      0.742149      0.026414     Biso  1.000000 N
   N52        1.0     0.742149      0.918665      0.973586     Biso  1.000000 N
   N53        1.0     0.742200      0.818270      0.962689     Biso  1.000000 N
   N54        1.0     0.362174      0.007113      0.218842     Biso  1.000000 N
   N55        1.0     0.257851      0.081335      0.026414     Biso  1.000000 N
   N56        1.0     0.081335      0.823484      0.973586     Biso  1.000000 N
   N57        1.0     0.181730      0.923931      0.962689     Biso  1.000000 N
   N58        1.0     0.923931      0.742200      0.037312     Biso  1.000000 N
   N59        1.0     0.986555      0.673322      0.909532     Biso  1.000000 N
   N60        1.0     0.257800      0.181730      0.037312     Biso  1.000000 N
   N61        1.0     0.326678      0.313233      0.909532     Biso  1.000000 N
   N62        1.0     0.818270      0.076069      0.037312     Biso  1.000000 N
   N63        1.0     0.680112      0.660012      0.423801     Biso  1.000000 N
   N64        1.0     0.742736      0.591133      0.296022     Biso  1.000000 N
   N65        1.0     0.339988      0.020100      0.423801     Biso  1.000000 N
   N66        1.0     0.408867      0.151603      0.296022     Biso  1.000000 N
   N67        1.0     0.979900      0.319888      0.423801     Biso  1.000000 N
   N68        1.0     0.848397      0.257264      0.296022     Biso  1.000000 N
   N69        1.0     0.021728      0.695507      0.114491     Biso  1.000000 N
   N70        1.0     0.313233      0.986555      0.090468     Biso  1.000000 N
   N71        1.0     0.978272      0.304493      0.885509     Biso  1.000000 N
   N72        1.0     0.686767      0.013445      0.909532     Biso  1.000000 N
   Zn1        1.0     0.671915      0.065343      0.343249     Biso  1.000000 Zn
   Zn2        1.0     0.398676      0.060095      0.323417     Biso  1.000000 Zn
   Zn3        1.0     0.726761      0.994752      0.009916     Biso  1.000000 Zn
   Zn4        1.0     0.934657      0.606572      0.343249     Biso  1.000000 Zn
   Zn5        1.0     0.939905      0.338581      0.323417     Biso  1.000000 Zn
   Zn6        1.0     0.393428      0.328085      0.343249     Biso  1.000000 Zn
   Zn7        1.0     0.267991      0.273239      0.009916     Biso  1.000000 Zn
   Zn8        1.0     0.661419      0.601324      0.323417     Biso  1.000000 Zn
   Zn9        1.0     0.273239      0.005248      0.990084     Biso  1.000000 Zn
   Zn10       1.0     0.328085      0.934657      0.656751     Biso  1.000000 Zn
   Zn11       1.0     0.601324      0.939905      0.676583     Biso  1.000000 Zn
   Zn12       1.0     0.065343      0.393428      0.656751     Biso  1.000000 Zn
   Zn13       1.0     0.060095      0.661419      0.676583     Biso  1.000000 Zn
   Zn14       1.0     0.606572      0.671915      0.656751     Biso  1.000000 Zn
   Zn15       1.0     0.732009      0.726761      0.990084     Biso  1.000000 Zn
   Zn16       1.0     0.338581      0.398676      0.676583     Biso  1.000000 Zn
   Zn17       1.0     0.005248      0.732010      0.009916     Biso  1.000000 Zn
   Zn18       1.0     0.994752      0.267990      0.990084     Biso  1.000000 Zn
